# CIF file generated by openbabel 3.1.0, see https://openbabel.org
data_I
_chemical_name_common 'image0'
_cell_length_a 25.7718
_cell_length_b 25.7718
_cell_length_c 25.7718
_cell_angle_alpha 90
_cell_angle_beta 90
_cell_angle_gamma 90
_space_group_name_H-M_alt 'P 1'
_space_group_name_Hall 'P 1'
loop_
    _symmetry_equiv_pos_as_xyz
    x,y,z
loop_
    _atom_site_label
    _atom_site_type_symbol
    _atom_site_fract_x
    _atom_site_fract_y
    _atom_site_fract_z
    _atom_site_occupancy
    C1       C        0.20990    0.23550    0.02630    1.000
    Br1      Br       0.13640    0.21420    0.05160    1.000
    C2       C        0.20990    0.73550    0.52630    1.000
    Br2      Br       0.13640    0.71420    0.55160    1.000
    C3       C        0.70990    0.23550    0.52630    1.000
    Br3      Br       0.63640    0.21420    0.55160    1.000
    C4       C        0.70990    0.73550    0.02630    1.000
    Br4      Br       0.63640    0.71420    0.05160    1.000
    C5       C        0.79010    0.76450    0.02630    1.000
    Br5      Br       0.86360    0.78580    0.05160    1.000
    C6       C        0.79010    0.26450    0.52630    1.000
    Br6      Br       0.86360    0.28580    0.55160    1.000
    C7       C        0.29010    0.76450    0.52630    1.000
    Br7      Br       0.36360    0.78580    0.55160    1.000
    C8       C        0.29010    0.26450    0.02630    1.000
    Br8      Br       0.36360    0.28580    0.05160    1.000
    C9       C        0.79010    0.23550    0.97370    1.000
    Br9      Br       0.86360    0.21420    0.94840    1.000
    C10      C        0.79010    0.73550    0.47370    1.000
    Br10     Br       0.86360    0.71420    0.44840    1.000
    C11      C        0.29010    0.23550    0.47370    1.000
    Br11     Br       0.36360    0.21420    0.44840    1.000
    C12      C        0.29010    0.73550    0.97370    1.000
    Br12     Br       0.36360    0.71420    0.94840    1.000
    C13      C        0.20990    0.76450    0.97370    1.000
    Br13     Br       0.13640    0.78580    0.94840    1.000
    C14      C        0.20990    0.26450    0.47370    1.000
    Br14     Br       0.13640    0.28580    0.44840    1.000
    C15      C        0.70990    0.76450    0.47370    1.000
    Br15     Br       0.63640    0.78580    0.44840    1.000
    C16      C        0.70990    0.26450    0.97370    1.000
    Br16     Br       0.63640    0.28580    0.94840    1.000
    C17      C        0.02630    0.20990    0.23550    1.000
    Br17     Br       0.05160    0.13640    0.21420    1.000
    C18      C        0.02630    0.70990    0.73550    1.000
    Br18     Br       0.05160    0.63640    0.71420    1.000
    C19      C        0.52630    0.20990    0.73550    1.000
    Br19     Br       0.55160    0.13640    0.71420    1.000
    C20      C        0.52630    0.70990    0.23550    1.000
    Br20     Br       0.55160    0.63640    0.21420    1.000
    C21      C        0.02630    0.79010    0.76450    1.000
    Br21     Br       0.05160    0.86360    0.78580    1.000
    C22      C        0.02630    0.29010    0.26450    1.000
    Br22     Br       0.05160    0.36360    0.28580    1.000
    C23      C        0.52630    0.79010    0.26450    1.000
    Br23     Br       0.55160    0.86360    0.28580    1.000
    C24      C        0.52630    0.29010    0.76450    1.000
    Br24     Br       0.55160    0.36360    0.78580    1.000
    C25      C        0.97370    0.79010    0.23550    1.000
    Br25     Br       0.94840    0.86360    0.21420    1.000
    C26      C        0.97370    0.29010    0.73550    1.000
    Br26     Br       0.94840    0.36360    0.71420    1.000
    C27      C        0.47370    0.79010    0.73550    1.000
    Br27     Br       0.44840    0.86360    0.71420    1.000
    C28      C        0.47370    0.29010    0.23550    1.000
    Br28     Br       0.44840    0.36360    0.21420    1.000
    C29      C        0.97370    0.20990    0.76450    1.000
    Br29     Br       0.94840    0.13640    0.78580    1.000
    C30      C        0.97370    0.70990    0.26450    1.000
    Br30     Br       0.94840    0.63640    0.28580    1.000
    C31      C        0.47370    0.20990    0.26450    1.000
    Br31     Br       0.44840    0.13640    0.28580    1.000
    C32      C        0.47370    0.70990    0.76450    1.000
    Br32     Br       0.44840    0.63640    0.78580    1.000
    C33      C        0.23550    0.02630    0.20990    1.000
    Br33     Br       0.21420    0.05160    0.13640    1.000
    C34      C        0.23550    0.52630    0.70990    1.000
    Br34     Br       0.21420    0.55160    0.63640    1.000
    C35      C        0.73550    0.02630    0.70990    1.000
    Br35     Br       0.71420    0.05160    0.63640    1.000
    C36      C        0.73550    0.52630    0.20990    1.000
    Br36     Br       0.71420    0.55160    0.13640    1.000
    C37      C        0.76450    0.02630    0.79010    1.000
    Br37     Br       0.78580    0.05160    0.86360    1.000
    C38      C        0.76450    0.52630    0.29010    1.000
    Br38     Br       0.78580    0.55160    0.36360    1.000
    C39      C        0.26450    0.02630    0.29010    1.000
    Br39     Br       0.28580    0.05160    0.36360    1.000
    C40      C        0.26450    0.52630    0.79010    1.000
    Br40     Br       0.28580    0.55160    0.86360    1.000
    C41      C        0.23550    0.97370    0.79010    1.000
    Br41     Br       0.21420    0.94840    0.86360    1.000
    C42      C        0.23550    0.47370    0.29010    1.000
    Br42     Br       0.21420    0.44840    0.36360    1.000
    C43      C        0.73550    0.97370    0.29010    1.000
    Br43     Br       0.71420    0.94840    0.36360    1.000
    C44      C        0.73550    0.47370    0.79010    1.000
    Br44     Br       0.71420    0.44840    0.86360    1.000
    C45      C        0.76450    0.97370    0.20990    1.000
    Br45     Br       0.78580    0.94840    0.13640    1.000
    C46      C        0.76450    0.47370    0.70990    1.000
    Br46     Br       0.78580    0.44840    0.63640    1.000
    C47      C        0.26450    0.97370    0.70990    1.000
    Br47     Br       0.28580    0.94840    0.63640    1.000
    C48      C        0.26450    0.47370    0.20990    1.000
    Br48     Br       0.28580    0.44840    0.13640    1.000
    C49      C        0.23550    0.20990    0.97370    1.000
    Br49     Br       0.21420    0.13640    0.94840    1.000
    C50      C        0.23550    0.70990    0.47370    1.000
    Br50     Br       0.21420    0.63640    0.44840    1.000
    C51      C        0.73550    0.20990    0.47370    1.000
    Br51     Br       0.71420    0.13640    0.44840    1.000
    C52      C        0.73550    0.70990    0.97370    1.000
    Br52     Br       0.71420    0.63640    0.94840    1.000
    C53      C        0.76450    0.79010    0.97370    1.000
    Br53     Br       0.78580    0.86360    0.94840    1.000
    C54      C        0.76450    0.29010    0.47370    1.000
    Br54     Br       0.78580    0.36360    0.44840    1.000
    C55      C        0.26450    0.79010    0.47370    1.000
    Br55     Br       0.28580    0.86360    0.44840    1.000
    C56      C        0.26450    0.29010    0.97370    1.000
    Br56     Br       0.28580    0.36360    0.94840    1.000
    C57      C        0.23550    0.79010    0.02630    1.000
    Br57     Br       0.21420    0.86360    0.05160    1.000
    C58      C        0.23550    0.29010    0.52630    1.000
    Br58     Br       0.21420    0.36360    0.55160    1.000
    C59      C        0.73550    0.79010    0.52630    1.000
    Br59     Br       0.71420    0.86360    0.55160    1.000
    C60      C        0.73550    0.29010    0.02630    1.000
    Br60     Br       0.71420    0.36360    0.05160    1.000
    C61      C        0.76450    0.20990    0.02630    1.000
    Br61     Br       0.78580    0.13640    0.05160    1.000
    C62      C        0.76450    0.70990    0.52630    1.000
    Br62     Br       0.78580    0.63640    0.55160    1.000
    C63      C        0.26450    0.20990    0.52630    1.000
    Br63     Br       0.28580    0.13640    0.55160    1.000
    C64      C        0.26450    0.70990    0.02630    1.000
    Br64     Br       0.28580    0.63640    0.05160    1.000
    C65      C        0.20990    0.02630    0.76450    1.000
    Br65     Br       0.13640    0.05160    0.78580    1.000
    C66      C        0.20990    0.52630    0.26450    1.000
    Br66     Br       0.13640    0.55160    0.28580    1.000
    C67      C        0.70990    0.02630    0.26450    1.000
    Br67     Br       0.63640    0.05160    0.28580    1.000
    C68      C        0.70990    0.52630    0.76450    1.000
    Br68     Br       0.63640    0.55160    0.78580    1.000
    C69      C        0.79010    0.02630    0.23550    1.000
    Br69     Br       0.86360    0.05160    0.21420    1.000
    C70      C        0.79010    0.52630    0.73550    1.000
    Br70     Br       0.86360    0.55160    0.71420    1.000
    C71      C        0.29010    0.02630    0.73550    1.000
    Br71     Br       0.36360    0.05160    0.71420    1.000
    C72      C        0.29010    0.52630    0.23550    1.000
    Br72     Br       0.36360    0.55160    0.21420    1.000
    C73      C        0.79010    0.97370    0.76450    1.000
    Br73     Br       0.86360    0.94840    0.78580    1.000
    C74      C        0.79010    0.47370    0.26450    1.000
    Br74     Br       0.86360    0.44840    0.28580    1.000
    C75      C        0.29010    0.97370    0.26450    1.000
    Br75     Br       0.36360    0.94840    0.28580    1.000
    C76      C        0.29010    0.47370    0.76450    1.000
    Br76     Br       0.36360    0.44840    0.78580    1.000
    C77      C        0.20990    0.97370    0.23550    1.000
    Br77     Br       0.13640    0.94840    0.21420    1.000
    C78      C        0.20990    0.47370    0.73550    1.000
    Br78     Br       0.13640    0.44840    0.71420    1.000
    C79      C        0.70990    0.97370    0.73550    1.000
    Br79     Br       0.63640    0.94840    0.71420    1.000
    C80      C        0.70990    0.47370    0.23550    1.000
    Br80     Br       0.63640    0.44840    0.21420    1.000
    C81      C        0.02630    0.23550    0.79010    1.000
    Br81     Br       0.05160    0.21420    0.86360    1.000
    C82      C        0.02630    0.73550    0.29010    1.000
    Br82     Br       0.05160    0.71420    0.36360    1.000
    C83      C        0.52630    0.23550    0.29010    1.000
    Br83     Br       0.55160    0.21420    0.36360    1.000
    C84      C        0.52630    0.73550    0.79010    1.000
    Br84     Br       0.55160    0.71420    0.86360    1.000
    C85      C        0.02630    0.76450    0.20990    1.000
    Br85     Br       0.05160    0.78580    0.13640    1.000
    C86      C        0.02630    0.26450    0.70990    1.000
    Br86     Br       0.05160    0.28580    0.63640    1.000
    C87      C        0.52630    0.76450    0.70990    1.000
    Br87     Br       0.55160    0.78580    0.63640    1.000
    C88      C        0.52630    0.26450    0.20990    1.000
    Br88     Br       0.55160    0.28580    0.13640    1.000
    C89      C        0.97370    0.23550    0.20990    1.000
    Br89     Br       0.94840    0.21420    0.13640    1.000
    C90      C        0.97370    0.73550    0.70990    1.000
    Br90     Br       0.94840    0.71420    0.63640    1.000
    C91      C        0.47370    0.23550    0.70990    1.000
    Br91     Br       0.44840    0.21420    0.63640    1.000
    C92      C        0.47370    0.73550    0.20990    1.000
    Br92     Br       0.44840    0.71420    0.13640    1.000
    C93      C        0.97370    0.76450    0.79010    1.000
    Br93     Br       0.94840    0.78580    0.86360    1.000
    C94      C        0.97370    0.26450    0.29010    1.000
    Br94     Br       0.94840    0.28580    0.36360    1.000
    C95      C        0.47370    0.76450    0.29010    1.000
    Br95     Br       0.44840    0.78580    0.36360    1.000
    C96      C        0.47370    0.26450    0.79010    1.000
    Br96     Br       0.44840    0.28580    0.86360    1.000
    C97      C        0.79010    0.76450    0.97370    1.000
    Br97     Br       0.86360    0.78580    0.94840    1.000
    C98      C        0.79010    0.26450    0.47370    1.000
    Br98     Br       0.86360    0.28580    0.44840    1.000
    C99      C        0.29010    0.76450    0.47370    1.000
    Br99     Br       0.36360    0.78580    0.44840    1.000
    C100     C        0.29010    0.26450    0.97370    1.000
    Br100    Br       0.36360    0.28580    0.94840    1.000
    C101     C        0.20990    0.23550    0.97370    1.000
    Br101    Br       0.13640    0.21420    0.94840    1.000
    C102     C        0.20990    0.73550    0.47370    1.000
    Br102    Br       0.13640    0.71420    0.44840    1.000
    C103     C        0.70990    0.23550    0.47370    1.000
    Br103    Br       0.63640    0.21420    0.44840    1.000
    C104     C        0.70990    0.73550    0.97370    1.000
    Br104    Br       0.63640    0.71420    0.94840    1.000
    C105     C        0.20990    0.76450    0.02630    1.000
    Br105    Br       0.13640    0.78580    0.05160    1.000
    C106     C        0.20990    0.26450    0.52630    1.000
    Br106    Br       0.13640    0.28580    0.55160    1.000
    C107     C        0.70990    0.76450    0.52630    1.000
    Br107    Br       0.63640    0.78580    0.55160    1.000
    C108     C        0.70990    0.26450    0.02630    1.000
    Br108    Br       0.63640    0.28580    0.05160    1.000
    C109     C        0.79010    0.23550    0.02630    1.000
    Br109    Br       0.86360    0.21420    0.05160    1.000
    C110     C        0.79010    0.73550    0.52630    1.000
    Br110    Br       0.86360    0.71420    0.55160    1.000
    C111     C        0.29010    0.23550    0.52630    1.000
    Br111    Br       0.36360    0.21420    0.55160    1.000
    C112     C        0.29010    0.73550    0.02630    1.000
    Br112    Br       0.36360    0.71420    0.05160    1.000
    C113     C        0.97370    0.79010    0.76450    1.000
    Br113    Br       0.94840    0.86360    0.78580    1.000
    C114     C        0.97370    0.29010    0.26450    1.000
    Br114    Br       0.94840    0.36360    0.28580    1.000
    C115     C        0.47370    0.79010    0.26450    1.000
    Br115    Br       0.44840    0.86360    0.28580    1.000
    C116     C        0.47370    0.29010    0.76450    1.000
    Br116    Br       0.44840    0.36360    0.78580    1.000
    C117     C        0.97370    0.20990    0.23550    1.000
    Br117    Br       0.94840    0.13640    0.21420    1.000
    C118     C        0.97370    0.70990    0.73550    1.000
    Br118    Br       0.94840    0.63640    0.71420    1.000
    C119     C        0.47370    0.20990    0.73550    1.000
    Br119    Br       0.44840    0.13640    0.71420    1.000
    C120     C        0.47370    0.70990    0.23550    1.000
    Br120    Br       0.44840    0.63640    0.21420    1.000
    C121     C        0.02630    0.20990    0.76450    1.000
    Br121    Br       0.05160    0.13640    0.78580    1.000
    C122     C        0.02630    0.70990    0.26450    1.000
    Br122    Br       0.05160    0.63640    0.28580    1.000
    C123     C        0.52630    0.20990    0.26450    1.000
    Br123    Br       0.55160    0.13640    0.28580    1.000
    C124     C        0.52630    0.70990    0.76450    1.000
    Br124    Br       0.55160    0.63640    0.78580    1.000
    C125     C        0.02630    0.79010    0.23550    1.000
    Br125    Br       0.05160    0.86360    0.21420    1.000
    C126     C        0.02630    0.29010    0.73550    1.000
    Br126    Br       0.05160    0.36360    0.71420    1.000
    C127     C        0.52630    0.79010    0.73550    1.000
    Br127    Br       0.55160    0.86360    0.71420    1.000
    C128     C        0.52630    0.29010    0.23550    1.000
    Br128    Br       0.55160    0.36360    0.21420    1.000
    C129     C        0.76450    0.97370    0.79010    1.000
    Br129    Br       0.78580    0.94840    0.86360    1.000
    C130     C        0.76450    0.47370    0.29010    1.000
    Br130    Br       0.78580    0.44840    0.36360    1.000
    C131     C        0.26450    0.97370    0.29010    1.000
    Br131    Br       0.28580    0.94840    0.36360    1.000
    C132     C        0.26450    0.47370    0.79010    1.000
    Br132    Br       0.28580    0.44840    0.86360    1.000
    C133     C        0.23550    0.97370    0.20990    1.000
    Br133    Br       0.21420    0.94840    0.13640    1.000
    C134     C        0.23550    0.47370    0.70990    1.000
    Br134    Br       0.21420    0.44840    0.63640    1.000
    C135     C        0.73550    0.97370    0.70990    1.000
    Br135    Br       0.71420    0.94840    0.63640    1.000
    C136     C        0.73550    0.47370    0.20990    1.000
    Br136    Br       0.71420    0.44840    0.13640    1.000
    C137     C        0.76450    0.02630    0.20990    1.000
    Br137    Br       0.78580    0.05160    0.13640    1.000
    C138     C        0.76450    0.52630    0.70990    1.000
    Br138    Br       0.78580    0.55160    0.63640    1.000
    C139     C        0.26450    0.02630    0.70990    1.000
    Br139    Br       0.28580    0.05160    0.63640    1.000
    C140     C        0.26450    0.52630    0.20990    1.000
    Br140    Br       0.28580    0.55160    0.13640    1.000
    C141     C        0.23550    0.02630    0.79010    1.000
    Br141    Br       0.21420    0.05160    0.86360    1.000
    C142     C        0.23550    0.52630    0.29010    1.000
    Br142    Br       0.21420    0.55160    0.36360    1.000
    C143     C        0.73550    0.02630    0.29010    1.000
    Br143    Br       0.71420    0.05160    0.36360    1.000
    C144     C        0.73550    0.52630    0.79010    1.000
    Br144    Br       0.71420    0.55160    0.86360    1.000
    C145     C        0.76450    0.79010    0.02630    1.000
    Br145    Br       0.78580    0.86360    0.05160    1.000
    C146     C        0.76450    0.29010    0.52630    1.000
    Br146    Br       0.78580    0.36360    0.55160    1.000
    C147     C        0.26450    0.79010    0.52630    1.000
    Br147    Br       0.28580    0.86360    0.55160    1.000
    C148     C        0.26450    0.29010    0.02630    1.000
    Br148    Br       0.28580    0.36360    0.05160    1.000
    C149     C        0.23550    0.20990    0.02630    1.000
    Br149    Br       0.21420    0.13640    0.05160    1.000
    C150     C        0.23550    0.70990    0.52630    1.000
    Br150    Br       0.21420    0.63640    0.55160    1.000
    C151     C        0.73550    0.20990    0.52630    1.000
    Br151    Br       0.71420    0.13640    0.55160    1.000
    C152     C        0.73550    0.70990    0.02630    1.000
    Br152    Br       0.71420    0.63640    0.05160    1.000
    C153     C        0.76450    0.20990    0.97370    1.000
    Br153    Br       0.78580    0.13640    0.94840    1.000
    C154     C        0.76450    0.70990    0.47370    1.000
    Br154    Br       0.78580    0.63640    0.44840    1.000
    C155     C        0.26450    0.20990    0.47370    1.000
    Br155    Br       0.28580    0.13640    0.44840    1.000
    C156     C        0.26450    0.70990    0.97370    1.000
    Br156    Br       0.28580    0.63640    0.94840    1.000
    C157     C        0.23550    0.79010    0.97370    1.000
    Br157    Br       0.21420    0.86360    0.94840    1.000
    C158     C        0.23550    0.29010    0.47370    1.000
    Br158    Br       0.21420    0.36360    0.44840    1.000
    C159     C        0.73550    0.79010    0.47370    1.000
    Br159    Br       0.71420    0.86360    0.44840    1.000
    C160     C        0.73550    0.29010    0.97370    1.000
    Br160    Br       0.71420    0.36360    0.94840    1.000
    C161     C        0.79010    0.97370    0.23550    1.000
    Br161    Br       0.86360    0.94840    0.21420    1.000
    C162     C        0.79010    0.47370    0.73550    1.000
    Br162    Br       0.86360    0.44840    0.71420    1.000
    C163     C        0.29010    0.97370    0.73550    1.000
    Br163    Br       0.36360    0.94840    0.71420    1.000
    C164     C        0.29010    0.47370    0.23550    1.000
    Br164    Br       0.36360    0.44840    0.21420    1.000
    C165     C        0.20990    0.97370    0.76450    1.000
    Br165    Br       0.13640    0.94840    0.78580    1.000
    C166     C        0.20990    0.47370    0.26450    1.000
    Br166    Br       0.13640    0.44840    0.28580    1.000
    C167     C        0.70990    0.97370    0.26450    1.000
    Br167    Br       0.63640    0.94840    0.28580    1.000
    C168     C        0.70990    0.47370    0.76450    1.000
    Br168    Br       0.63640    0.44840    0.78580    1.000
    C169     C        0.20990    0.02630    0.23550    1.000
    Br169    Br       0.13640    0.05160    0.21420    1.000
    C170     C        0.20990    0.52630    0.73550    1.000
    Br170    Br       0.13640    0.55160    0.71420    1.000
    C171     C        0.70990    0.02630    0.73550    1.000
    Br171    Br       0.63640    0.05160    0.71420    1.000
    C172     C        0.70990    0.52630    0.23550    1.000
    Br172    Br       0.63640    0.55160    0.21420    1.000
    C173     C        0.79010    0.02630    0.76450    1.000
    Br173    Br       0.86360    0.05160    0.78580    1.000
    C174     C        0.79010    0.52630    0.26450    1.000
    Br174    Br       0.86360    0.55160    0.28580    1.000
    C175     C        0.29010    0.02630    0.26450    1.000
    Br175    Br       0.36360    0.05160    0.28580    1.000
    C176     C        0.29010    0.52630    0.76450    1.000
    Br176    Br       0.36360    0.55160    0.78580    1.000
    C177     C        0.97370    0.76450    0.20990    1.000
    Br177    Br       0.94840    0.78580    0.13640    1.000
    C178     C        0.97370    0.26450    0.70990    1.000
    Br178    Br       0.94840    0.28580    0.63640    1.000
    C179     C        0.47370    0.76450    0.70990    1.000
    Br179    Br       0.44840    0.78580    0.63640    1.000
    C180     C        0.47370    0.26450    0.20990    1.000
    Br180    Br       0.44840    0.28580    0.13640    1.000
    C181     C        0.97370    0.23550    0.79010    1.000
    Br181    Br       0.94840    0.21420    0.86360    1.000
    C182     C        0.97370    0.73550    0.29010    1.000
    Br182    Br       0.94840    0.71420    0.36360    1.000
    C183     C        0.47370    0.23550    0.29010    1.000
    Br183    Br       0.44840    0.21420    0.36360    1.000
    C184     C        0.47370    0.73550    0.79010    1.000
    Br184    Br       0.44840    0.71420    0.86360    1.000
    C185     C        0.02630    0.76450    0.79010    1.000
    Br185    Br       0.05160    0.78580    0.86360    1.000
    C186     C        0.02630    0.26450    0.29010    1.000
    Br186    Br       0.05160    0.28580    0.36360    1.000
    C187     C        0.52630    0.76450    0.29010    1.000
    Br187    Br       0.55160    0.78580    0.36360    1.000
    C188     C        0.52630    0.26450    0.79010    1.000
    Br188    Br       0.55160    0.28580    0.86360    1.000
    C189     C        0.02630    0.23550    0.20990    1.000
    Br189    Br       0.05160    0.21420    0.13640    1.000
    C190     C        0.02630    0.73550    0.70990    1.000
    Br190    Br       0.05160    0.71420    0.63640    1.000
    C191     C        0.52630    0.23550    0.70990    1.000
    Br191    Br       0.55160    0.21420    0.63640    1.000
    C192     C        0.52630    0.73550    0.20990    1.000
    Br192    Br       0.55160    0.71420    0.13640    1.000
    Zn1      Zn       0.20659    0.20659    0.20659    1.000
    Zn2      Zn       0.20659    0.70659    0.70659    1.000
    Zn3      Zn       0.70659    0.20659    0.70659    1.000
    Zn4      Zn       0.70659    0.70659    0.20659    1.000
    Zn5      Zn       0.79341    0.79341    0.20659    1.000
    Zn6      Zn       0.79341    0.29341    0.70659    1.000
    Zn7      Zn       0.29341    0.79341    0.70659    1.000
    Zn8      Zn       0.29341    0.29341    0.20659    1.000
    Zn9      Zn       0.79341    0.20659    0.79341    1.000
    Zn10     Zn       0.79341    0.70659    0.29341    1.000
    Zn11     Zn       0.29341    0.20659    0.29341    1.000
    Zn12     Zn       0.29341    0.70659    0.79341    1.000
    Zn13     Zn       0.20659    0.79341    0.79341    1.000
    Zn14     Zn       0.20659    0.29341    0.29341    1.000
    Zn15     Zn       0.70659    0.79341    0.29341    1.000
    Zn16     Zn       0.70659    0.29341    0.79341    1.000
    Zn17     Zn       0.20659    0.20659    0.79341    1.000
    Zn18     Zn       0.20659    0.70659    0.29341    1.000
    Zn19     Zn       0.70659    0.20659    0.29341    1.000
    Zn20     Zn       0.70659    0.70659    0.79341    1.000
    Zn21     Zn       0.79341    0.79341    0.79341    1.000
    Zn22     Zn       0.79341    0.29341    0.29341    1.000
    Zn23     Zn       0.29341    0.79341    0.29341    1.000
    Zn24     Zn       0.29341    0.29341    0.79341    1.000
    Zn25     Zn       0.20659    0.79341    0.20659    1.000
    Zn26     Zn       0.20659    0.29341    0.70659    1.000
    Zn27     Zn       0.70659    0.79341    0.70659    1.000
    Zn28     Zn       0.70659    0.29341    0.20659    1.000
    Zn29     Zn       0.79341    0.20659    0.20659    1.000
    Zn30     Zn       0.79341    0.70659    0.70659    1.000
    Zn31     Zn       0.29341    0.20659    0.70659    1.000
    Zn32     Zn       0.29341    0.70659    0.20659    1.000
    O1       O        0.25000    0.25000    0.25000    1.000
    O2       O        0.75000    0.75000    0.25000    1.000
    O3       O        0.75000    0.25000    0.75000    1.000
    O4       O        0.25000    0.75000    0.75000    1.000
    O5       O        0.25000    0.25000    0.75000    1.000
    O6       O        0.75000    0.75000    0.75000    1.000
    O7       O        0.75000    0.25000    0.25000    1.000
    O8       O        0.25000    0.75000    0.25000    1.000
    O9       O        0.22000    0.22000    0.13380    1.000
    O10      O        0.22000    0.72000    0.63380    1.000
    O11      O        0.72000    0.22000    0.63380    1.000
    O12      O        0.72000    0.72000    0.13380    1.000
    O13      O        0.78000    0.78000    0.13380    1.000
    O14      O        0.78000    0.28000    0.63380    1.000
    O15      O        0.28000    0.78000    0.63380    1.000
    O16      O        0.28000    0.28000    0.13380    1.000
    O17      O        0.78000    0.22000    0.86620    1.000
    O18      O        0.78000    0.72000    0.36620    1.000
    O19      O        0.28000    0.22000    0.36620    1.000
    O20      O        0.28000    0.72000    0.86620    1.000
    O21      O        0.22000    0.78000    0.86620    1.000
    O22      O        0.22000    0.28000    0.36620    1.000
    O23      O        0.72000    0.78000    0.36620    1.000
    O24      O        0.72000    0.28000    0.86620    1.000
    O25      O        0.13380    0.22000    0.22000    1.000
    O26      O        0.13380    0.72000    0.72000    1.000
    O27      O        0.63380    0.22000    0.72000    1.000
    O28      O        0.63380    0.72000    0.22000    1.000
    O29      O        0.13380    0.78000    0.78000    1.000
    O30      O        0.13380    0.28000    0.28000    1.000
    O31      O        0.63380    0.78000    0.28000    1.000
    O32      O        0.63380    0.28000    0.78000    1.000
    O33      O        0.86620    0.78000    0.22000    1.000
    O34      O        0.86620    0.28000    0.72000    1.000
    O35      O        0.36620    0.78000    0.72000    1.000
    O36      O        0.36620    0.28000    0.22000    1.000
    O37      O        0.86620    0.22000    0.78000    1.000
    O38      O        0.86620    0.72000    0.28000    1.000
    O39      O        0.36620    0.22000    0.28000    1.000
    O40      O        0.36620    0.72000    0.78000    1.000
    O41      O        0.22000    0.13380    0.22000    1.000
    O42      O        0.22000    0.63380    0.72000    1.000
    O43      O        0.72000    0.13380    0.72000    1.000
    O44      O        0.72000    0.63380    0.22000    1.000
    O45      O        0.78000    0.13380    0.78000    1.000
    O46      O        0.78000    0.63380    0.28000    1.000
    O47      O        0.28000    0.13380    0.28000    1.000
    O48      O        0.28000    0.63380    0.78000    1.000
    O49      O        0.22000    0.86620    0.78000    1.000
    O50      O        0.22000    0.36620    0.28000    1.000
    O51      O        0.72000    0.86620    0.28000    1.000
    O52      O        0.72000    0.36620    0.78000    1.000
    O53      O        0.78000    0.86620    0.22000    1.000
    O54      O        0.78000    0.36620    0.72000    1.000
    O55      O        0.28000    0.86620    0.72000    1.000
    O56      O        0.28000    0.36620    0.22000    1.000
    O57      O        0.22000    0.22000    0.86620    1.000
    O58      O        0.22000    0.72000    0.36620    1.000
    O59      O        0.72000    0.22000    0.36620    1.000
    O60      O        0.72000    0.72000    0.86620    1.000
    O61      O        0.78000    0.78000    0.86620    1.000
    O62      O        0.78000    0.28000    0.36620    1.000
    O63      O        0.28000    0.78000    0.36620    1.000
    O64      O        0.28000    0.28000    0.86620    1.000
    O65      O        0.22000    0.78000    0.13380    1.000
    O66      O        0.22000    0.28000    0.63380    1.000
    O67      O        0.72000    0.78000    0.63380    1.000
    O68      O        0.72000    0.28000    0.13380    1.000
    O69      O        0.78000    0.22000    0.13380    1.000
    O70      O        0.78000    0.72000    0.63380    1.000
    O71      O        0.28000    0.22000    0.63380    1.000
    O72      O        0.28000    0.72000    0.13380    1.000
    O73      O        0.22000    0.13380    0.78000    1.000
    O74      O        0.22000    0.63380    0.28000    1.000
    O75      O        0.72000    0.13380    0.28000    1.000
    O76      O        0.72000    0.63380    0.78000    1.000
    O77      O        0.78000    0.13380    0.22000    1.000
    O78      O        0.78000    0.63380    0.72000    1.000
    O79      O        0.28000    0.13380    0.72000    1.000
    O80      O        0.28000    0.63380    0.22000    1.000
    O81      O        0.78000    0.86620    0.78000    1.000
    O82      O        0.78000    0.36620    0.28000    1.000
    O83      O        0.28000    0.86620    0.28000    1.000
    O84      O        0.28000    0.36620    0.78000    1.000
    O85      O        0.22000    0.86620    0.22000    1.000
    O86      O        0.22000    0.36620    0.72000    1.000
    O87      O        0.72000    0.86620    0.72000    1.000
    O88      O        0.72000    0.36620    0.22000    1.000
    O89      O        0.13380    0.22000    0.78000    1.000
    O90      O        0.13380    0.72000    0.28000    1.000
    O91      O        0.63380    0.22000    0.28000    1.000
    O92      O        0.63380    0.72000    0.78000    1.000
    O93      O        0.13380    0.78000    0.22000    1.000
    O94      O        0.13380    0.28000    0.72000    1.000
    O95      O        0.63380    0.78000    0.72000    1.000
    O96      O        0.63380    0.28000    0.22000    1.000
    O97      O        0.86620    0.22000    0.22000    1.000
    O98      O        0.86620    0.72000    0.72000    1.000
    O99      O        0.36620    0.22000    0.72000    1.000
    O100     O        0.36620    0.72000    0.22000    1.000
    O101     O        0.86620    0.78000    0.78000    1.000
    O102     O        0.86620    0.28000    0.28000    1.000
    O103     O        0.36620    0.78000    0.28000    1.000
    O104     O        0.36620    0.28000    0.78000    1.000
    C193     C        0.25000    0.25000    0.11060    1.000
    C194     C        0.25000    0.25000    0.05500    1.000
    C195     C        0.25000    0.75000    0.61060    1.000
    C196     C        0.25000    0.75000    0.55500    1.000
    C197     C        0.75000    0.75000    0.11060    1.000
    C198     C        0.75000    0.75000    0.05500    1.000
    C199     C        0.75000    0.25000    0.61060    1.000
    C200     C        0.75000    0.25000    0.55500    1.000
    C201     C        0.75000    0.25000    0.88940    1.000
    C202     C        0.75000    0.25000    0.94500    1.000
    C203     C        0.75000    0.75000    0.38940    1.000
    C204     C        0.75000    0.75000    0.44500    1.000
    C205     C        0.25000    0.25000    0.38940    1.000
    C206     C        0.25000    0.25000    0.44500    1.000
    C207     C        0.25000    0.75000    0.88940    1.000
    C208     C        0.25000    0.75000    0.94500    1.000
    C209     C        0.11060    0.25000    0.25000    1.000
    C210     C        0.05500    0.25000    0.25000    1.000
    C211     C        0.61060    0.25000    0.75000    1.000
    C212     C        0.55500    0.25000    0.75000    1.000
    C213     C        0.11060    0.75000    0.75000    1.000
    C214     C        0.05500    0.75000    0.75000    1.000
    C215     C        0.61060    0.75000    0.25000    1.000
    C216     C        0.55500    0.75000    0.25000    1.000
    C217     C        0.88940    0.75000    0.25000    1.000
    C218     C        0.94500    0.75000    0.25000    1.000
    C219     C        0.38940    0.75000    0.75000    1.000
    C220     C        0.44500    0.75000    0.75000    1.000
    C221     C        0.38940    0.25000    0.25000    1.000
    C222     C        0.44500    0.25000    0.25000    1.000
    C223     C        0.88940    0.25000    0.75000    1.000
    C224     C        0.94500    0.25000    0.75000    1.000
    C225     C        0.25000    0.11060    0.25000    1.000
    C226     C        0.25000    0.05500    0.25000    1.000
    C227     C        0.25000    0.61060    0.75000    1.000
    C228     C        0.25000    0.55500    0.75000    1.000
    C229     C        0.75000    0.11060    0.75000    1.000
    C230     C        0.75000    0.05500    0.75000    1.000
    C231     C        0.75000    0.61060    0.25000    1.000
    C232     C        0.75000    0.55500    0.25000    1.000
    C233     C        0.25000    0.88940    0.75000    1.000
    C234     C        0.25000    0.94500    0.75000    1.000
    C235     C        0.25000    0.38940    0.25000    1.000
    C236     C        0.25000    0.44500    0.25000    1.000
    C237     C        0.75000    0.88940    0.25000    1.000
    C238     C        0.75000    0.94500    0.25000    1.000
    C239     C        0.75000    0.38940    0.75000    1.000
    C240     C        0.75000    0.44500    0.75000    1.000
    C241     C        0.25000    0.25000    0.88940    1.000
    C242     C        0.25000    0.25000    0.94500    1.000
    C243     C        0.25000    0.75000    0.38940    1.000
    C244     C        0.25000    0.75000    0.44500    1.000
    C245     C        0.75000    0.75000    0.88940    1.000
    C246     C        0.75000    0.75000    0.94500    1.000
    C247     C        0.75000    0.25000    0.38940    1.000
    C248     C        0.75000    0.25000    0.44500    1.000
    C249     C        0.25000    0.75000    0.11060    1.000
    C250     C        0.25000    0.75000    0.05500    1.000
    C251     C        0.25000    0.25000    0.61060    1.000
    C252     C        0.25000    0.25000    0.55500    1.000
    C253     C        0.75000    0.25000    0.11060    1.000
    C254     C        0.75000    0.25000    0.05500    1.000
    C255     C        0.75000    0.75000    0.61060    1.000
    C256     C        0.75000    0.75000    0.55500    1.000
    C257     C        0.25000    0.11060    0.75000    1.000
    C258     C        0.25000    0.05500    0.75000    1.000
    C259     C        0.25000    0.61060    0.25000    1.000
    C260     C        0.25000    0.55500    0.25000    1.000
    C261     C        0.75000    0.11060    0.25000    1.000
    C262     C        0.75000    0.05500    0.25000    1.000
    C263     C        0.75000    0.61060    0.75000    1.000
    C264     C        0.75000    0.55500    0.75000    1.000
    C265     C        0.75000    0.88940    0.75000    1.000
    C266     C        0.75000    0.94500    0.75000    1.000
    C267     C        0.75000    0.38940    0.25000    1.000
    C268     C        0.75000    0.44500    0.25000    1.000
    C269     C        0.25000    0.88940    0.25000    1.000
    C270     C        0.25000    0.94500    0.25000    1.000
    C271     C        0.25000    0.38940    0.75000    1.000
    C272     C        0.25000    0.44500    0.75000    1.000
    C273     C        0.11060    0.25000    0.75000    1.000
    C274     C        0.05500    0.25000    0.75000    1.000
    C275     C        0.61060    0.25000    0.25000    1.000
    C276     C        0.55500    0.25000    0.25000    1.000
    C277     C        0.11060    0.75000    0.25000    1.000
    C278     C        0.05500    0.75000    0.25000    1.000
    C279     C        0.61060    0.75000    0.75000    1.000
    C280     C        0.55500    0.75000    0.75000    1.000
    C281     C        0.88940    0.25000    0.25000    1.000
    C282     C        0.94500    0.25000    0.25000    1.000
    C283     C        0.38940    0.25000    0.75000    1.000
    C284     C        0.44500    0.25000    0.75000    1.000
    C285     C        0.88940    0.75000    0.75000    1.000
    C286     C        0.94500    0.75000    0.75000    1.000
    C287     C        0.38940    0.75000    0.25000    1.000
    C288     C        0.44500    0.75000    0.25000    1.000
