# CIF file generated by openbabel 3.1.0, see https://openbabel.org
data_I
_chemical_name_common 'image0'
_cell_length_a 28.365
_cell_length_b 28.365
_cell_length_c 13.361
_cell_angle_alpha 90
_cell_angle_beta 90
_cell_angle_gamma 90
_space_group_name_H-M_alt 'P 1'
_space_group_name_Hall 'P 1'
loop_
    _symmetry_equiv_pos_as_xyz
    x,y,z
loop_
    _atom_site_label
    _atom_site_type_symbol
    _atom_site_fract_x
    _atom_site_fract_y
    _atom_site_fract_z
    _atom_site_occupancy
    Co1      Co       0.85817    0.99361    0.59478    1.000
    Co2      Co       0.81324    0.09566    0.61692    1.000
    O1       O        0.82215    0.04168    0.50680    1.000
    O2       O        0.83615    0.00791    0.35950    1.000
    O3       O        0.69729    0.05263    0.11030    1.000
    O4       O        0.71495    0.07556    0.95540    1.000
    C1       C        0.81859    0.04029    0.41160    1.000
    C2       C        0.79200    0.07924    0.36070    1.000
    H1       H        0.80890    0.10930    0.37240    1.000
    H2       H        0.76050    0.08200    0.39220    1.000
    C3       C        0.78557    0.07268    0.24900    1.000
    H3       H        0.76700    0.04370    0.23660    1.000
    H4       H        0.81680    0.06870    0.21710    1.000
    C4       C        0.76056    0.11452    0.20260    1.000
    H5       H        0.77780    0.14370    0.22050    1.000
    H6       H        0.72850    0.11690    0.23130    1.000
    C5       C        0.75675    0.11130    0.08920    1.000
    H7       H        0.74900    0.14300    0.06280    1.000
    H8       H        0.78800    0.10240    0.06210    1.000
    C6       C        0.72064    0.07670    0.05000    1.000
    O5       O        0.88382    0.10592    0.61200    1.000
    O6       O        0.91749    0.03442    0.60320    1.000
    O7       O        0.11024    0.05550    0.50700    1.000
    O8       O        0.10010    0.06533    0.34550    1.000
    C7       C        0.91855    0.07870    0.61310    1.000
    C8       C        0.96599    0.10169    0.62600    1.000
    H9       H        0.98280    0.08620    0.68200    1.000
    H10      H        0.96130    0.13520    0.64420    1.000
    C9       C        0.99671    0.09902    0.53200    1.000
    H11      H        0.00620    0.06590    0.52020    1.000
    H12      H        0.97830    0.10970    0.47340    1.000
    C10      C        0.04047    0.12957    0.54300    1.000
    H13      H        0.05850    0.11890    0.60230    1.000
    H14      H        0.03070    0.16260    0.55480    1.000
    C11      C        0.07251    0.12788    0.45130    1.000
    H15      H        0.05390    0.13690    0.39170    1.000
    H16      H        0.09780    0.15160    0.45970    1.000
    C12      C        0.09489    0.08044    0.43220    1.000
    Co3      Co       0.35817    0.49361    0.09478    1.000
    Co4      Co       0.31324    0.59566    0.11692    1.000
    O9       O        0.32215    0.54168    0.00680    1.000
    O10      O        0.33615    0.50791    0.85950    1.000
    O11      O        0.19729    0.55263    0.61030    1.000
    O12      O        0.21495    0.57556    0.45540    1.000
    C13      C        0.31859    0.54029    0.91160    1.000
    C14      C        0.29200    0.57924    0.86070    1.000
    H17      H        0.30890    0.60930    0.87240    1.000
    H18      H        0.26050    0.58200    0.89220    1.000
    C15      C        0.28557    0.57268    0.74900    1.000
    H19      H        0.26700    0.54370    0.73660    1.000
    H20      H        0.31680    0.56870    0.71710    1.000
    C16      C        0.26056    0.61452    0.70260    1.000
    H21      H        0.27780    0.64370    0.72050    1.000
    H22      H        0.22850    0.61690    0.73130    1.000
    C17      C        0.25675    0.61130    0.58920    1.000
    H23      H        0.24900    0.64300    0.56280    1.000
    H24      H        0.28800    0.60240    0.56210    1.000
    C18      C        0.22064    0.57670    0.55000    1.000
    O13      O        0.38382    0.60592    0.11200    1.000
    O14      O        0.41749    0.53442    0.10320    1.000
    O15      O        0.61024    0.55550    0.00700    1.000
    O16      O        0.60010    0.56533    0.84550    1.000
    C19      C        0.41855    0.57870    0.11310    1.000
    C20      C        0.46599    0.60169    0.12600    1.000
    H25      H        0.48280    0.58620    0.18200    1.000
    H26      H        0.46130    0.63520    0.14420    1.000
    C21      C        0.49671    0.59902    0.03200    1.000
    H27      H        0.50620    0.56590    0.02020    1.000
    H28      H        0.47830    0.60970    0.97340    1.000
    C22      C        0.54047    0.62957    0.04300    1.000
    H29      H        0.55850    0.61890    0.10230    1.000
    H30      H        0.53070    0.66260    0.05480    1.000
    C23      C        0.57251    0.62788    0.95130    1.000
    H31      H        0.55390    0.63690    0.89170    1.000
    H32      H        0.59780    0.65160    0.95970    1.000
    C24      C        0.59489    0.58044    0.93220    1.000
    Co5      Co       0.64183    0.00639    0.09478    1.000
    Co6      Co       0.68676    0.90434    0.11692    1.000
    O17      O        0.67785    0.95832    0.00680    1.000
    O18      O        0.66385    0.99209    0.85950    1.000
    O19      O        0.80271    0.94737    0.61030    1.000
    O20      O        0.78505    0.92444    0.45540    1.000
    C25      C        0.68141    0.95971    0.91160    1.000
    C26      C        0.70800    0.92076    0.86070    1.000
    H33      H        0.69110    0.89070    0.87240    1.000
    H34      H        0.73950    0.91800    0.89220    1.000
    C27      C        0.71443    0.92732    0.74900    1.000
    H35      H        0.73300    0.95630    0.73660    1.000
    H36      H        0.68320    0.93130    0.71710    1.000
    C28      C        0.73944    0.88548    0.70260    1.000
    H37      H        0.72220    0.85630    0.72050    1.000
    H38      H        0.77150    0.88310    0.73130    1.000
    C29      C        0.74325    0.88870    0.58920    1.000
    H39      H        0.75100    0.85700    0.56280    1.000
    H40      H        0.71200    0.89760    0.56210    1.000
    C30      C        0.77936    0.92330    0.55000    1.000
    O21      O        0.61618    0.89408    0.11200    1.000
    O22      O        0.58251    0.96558    0.10320    1.000
    O23      O        0.38976    0.94450    0.00700    1.000
    O24      O        0.39990    0.93467    0.84550    1.000
    C31      C        0.58145    0.92130    0.11310    1.000
    C32      C        0.53401    0.89831    0.12600    1.000
    H41      H        0.51720    0.91380    0.18200    1.000
    H42      H        0.53870    0.86480    0.14420    1.000
    C33      C        0.50329    0.90098    0.03200    1.000
    H43      H        0.49380    0.93410    0.02020    1.000
    H44      H        0.52170    0.89030    0.97340    1.000
    C34      C        0.45953    0.87043    0.04300    1.000
    H45      H        0.44150    0.88110    0.10230    1.000
    H46      H        0.46930    0.83740    0.05480    1.000
    C35      C        0.42749    0.87212    0.95130    1.000
    H47      H        0.44610    0.86310    0.89170    1.000
    H48      H        0.40220    0.84840    0.95970    1.000
    C36      C        0.40511    0.91956    0.93220    1.000
    Co7      Co       0.14183    0.50639    0.59478    1.000
    Co8      Co       0.18676    0.40434    0.61692    1.000
    O25      O        0.17785    0.45832    0.50680    1.000
    O26      O        0.16385    0.49209    0.35950    1.000
    O27      O        0.30271    0.44737    0.11030    1.000
    O28      O        0.28505    0.42444    0.95540    1.000
    C37      C        0.18141    0.45971    0.41160    1.000
    C38      C        0.20800    0.42076    0.36070    1.000
    H49      H        0.19110    0.39070    0.37240    1.000
    H50      H        0.23950    0.41800    0.39220    1.000
    C39      C        0.21443    0.42732    0.24900    1.000
    H51      H        0.23300    0.45630    0.23660    1.000
    H52      H        0.18320    0.43130    0.21710    1.000
    C40      C        0.23944    0.38548    0.20260    1.000
    H53      H        0.22220    0.35630    0.22050    1.000
    H54      H        0.27150    0.38310    0.23130    1.000
    C41      C        0.24325    0.38870    0.08920    1.000
    H55      H        0.25100    0.35700    0.06280    1.000
    H56      H        0.21200    0.39760    0.06210    1.000
    C42      C        0.27936    0.42330    0.05000    1.000
    O29      O        0.11618    0.39408    0.61200    1.000
    O30      O        0.08251    0.46558    0.60320    1.000
    O31      O        0.88976    0.44450    0.50700    1.000
    O32      O        0.89990    0.43467    0.34550    1.000
    C43      C        0.08145    0.42130    0.61310    1.000
    C44      C        0.03401    0.39831    0.62600    1.000
    H57      H        0.01720    0.41380    0.68200    1.000
    H58      H        0.03870    0.36480    0.64420    1.000
    C45      C        0.00329    0.40098    0.53200    1.000
    H59      H        0.99380    0.43410    0.52020    1.000
    H60      H        0.02170    0.39030    0.47340    1.000
    C46      C        0.95953    0.37043    0.54300    1.000
    H61      H        0.94150    0.38110    0.60230    1.000
    H62      H        0.96930    0.33740    0.55480    1.000
    C47      C        0.92749    0.37212    0.45130    1.000
    H63      H        0.94610    0.36310    0.39170    1.000
    H64      H        0.90220    0.34840    0.45970    1.000
    C48      C        0.90511    0.41956    0.43220    1.000
    Co9      Co       0.75639    0.10817    0.84478    1.000
    Co10     Co       0.65434    0.06324    0.86692    1.000
    O33      O        0.70832    0.07215    0.75680    1.000
    O34      O        0.74209    0.08615    0.60950    1.000
    O35      O        0.69737    0.94729    0.36030    1.000
    O36      O        0.67444    0.96495    0.20540    1.000
    C49      C        0.70971    0.06859    0.66160    1.000
    C50      C        0.67076    0.04200    0.61070    1.000
    H65      H        0.64070    0.05890    0.62240    1.000
    H66      H        0.66800    0.01050    0.64220    1.000
    C51      C        0.67732    0.03557    0.49900    1.000
    H67      H        0.70630    0.01700    0.48660    1.000
    H68      H        0.68130    0.06680    0.46710    1.000
    C52      C        0.63548    0.01056    0.45260    1.000
    H69      H        0.60630    0.02780    0.47050    1.000
    H70      H        0.63310    0.97850    0.48130    1.000
    C53      C        0.63870    0.00675    0.33920    1.000
    H71      H        0.60700    0.99900    0.31280    1.000
    H72      H        0.64760    0.03800    0.31210    1.000
    C54      C        0.67330    0.97064    0.30000    1.000
    O37      O        0.64408    0.13382    0.86200    1.000
    O38      O        0.71558    0.16749    0.85320    1.000
    O39      O        0.69450    0.36024    0.75700    1.000
    O40      O        0.68467    0.35010    0.59550    1.000
    C55      C        0.67130    0.16855    0.86310    1.000
    C56      C        0.64831    0.21599    0.87600    1.000
    H73      H        0.66380    0.23280    0.93200    1.000
    H74      H        0.61480    0.21130    0.89420    1.000
    C57      C        0.65098    0.24671    0.78200    1.000
    H75      H        0.68410    0.25620    0.77020    1.000
    H76      H        0.64030    0.22830    0.72340    1.000
    C58      C        0.62043    0.29047    0.79300    1.000
    H77      H        0.63110    0.30850    0.85230    1.000
    H78      H        0.58740    0.28070    0.80480    1.000
    C59      C        0.62212    0.32251    0.70130    1.000
    H79      H        0.61310    0.30390    0.64170    1.000
    H80      H        0.59840    0.34780    0.70970    1.000
    C60      C        0.66956    0.34489    0.68220    1.000
    Co11     Co       0.25639    0.60817    0.34478    1.000
    Co12     Co       0.15434    0.56324    0.36692    1.000
    O41      O        0.20832    0.57215    0.25680    1.000
    O42      O        0.24209    0.58615    0.10950    1.000
    O43      O        0.19737    0.44729    0.86030    1.000
    O44      O        0.17444    0.46495    0.70540    1.000
    C61      C        0.20971    0.56859    0.16160    1.000
    C62      C        0.17076    0.54200    0.11070    1.000
    H81      H        0.14070    0.55890    0.12240    1.000
    H82      H        0.16800    0.51050    0.14220    1.000
    C63      C        0.17732    0.53557    0.99900    1.000
    H83      H        0.20630    0.51700    0.98660    1.000
    H84      H        0.18130    0.56680    0.96710    1.000
    C64      C        0.13548    0.51056    0.95260    1.000
    H85      H        0.10630    0.52780    0.97050    1.000
    H86      H        0.13310    0.47850    0.98130    1.000
    C65      C        0.13870    0.50675    0.83920    1.000
    H87      H        0.10700    0.49900    0.81280    1.000
    H88      H        0.14760    0.53800    0.81210    1.000
    C66      C        0.17330    0.47064    0.80000    1.000
    O45      O        0.14408    0.63382    0.36200    1.000
    O46      O        0.21558    0.66749    0.35320    1.000
    O47      O        0.19450    0.86024    0.25700    1.000
    O48      O        0.18467    0.85010    0.09550    1.000
    C67      C        0.17130    0.66855    0.36310    1.000
    C68      C        0.14831    0.71599    0.37600    1.000
    H89      H        0.16380    0.73280    0.43200    1.000
    H90      H        0.11480    0.71130    0.39420    1.000
    C69      C        0.15098    0.74671    0.28200    1.000
    H91      H        0.18410    0.75620    0.27020    1.000
    H92      H        0.14030    0.72830    0.22340    1.000
    C70      C        0.12043    0.79047    0.29300    1.000
    H93      H        0.13110    0.80850    0.35230    1.000
    H94      H        0.08740    0.78070    0.30480    1.000
    C71      C        0.12212    0.82251    0.20130    1.000
    H95      H        0.11310    0.80390    0.14170    1.000
    H96      H        0.09840    0.84780    0.20970    1.000
    C72      C        0.16956    0.84489    0.18220    1.000
    Co13     Co       0.74361    0.89183    0.34478    1.000
    Co14     Co       0.84566    0.93676    0.36692    1.000
    O49      O        0.79168    0.92785    0.25680    1.000
    O50      O        0.75791    0.91385    0.10950    1.000
    O51      O        0.80263    0.05271    0.86030    1.000
    O52      O        0.82556    0.03505    0.70540    1.000
    C73      C        0.79029    0.93141    0.16160    1.000
    C74      C        0.82924    0.95800    0.11070    1.000
    H97      H        0.85930    0.94110    0.12240    1.000
    H98      H        0.83200    0.98950    0.14220    1.000
    C75      C        0.82268    0.96443    0.99900    1.000
    H99      H        0.79370    0.98300    0.98660    1.000
    H100     H        0.81870    0.93320    0.96710    1.000
    C76      C        0.86452    0.98944    0.95260    1.000
    H101     H        0.89370    0.97220    0.97050    1.000
    H102     H        0.86690    0.02150    0.98130    1.000
    C77      C        0.86130    0.99325    0.83920    1.000
    H103     H        0.89300    0.00100    0.81280    1.000
    H104     H        0.85240    0.96200    0.81210    1.000
    C78      C        0.82670    0.02936    0.80000    1.000
    O53      O        0.85592    0.86618    0.36200    1.000
    O54      O        0.78442    0.83251    0.35320    1.000
    O55      O        0.80550    0.63976    0.25700    1.000
    O56      O        0.81533    0.64990    0.09550    1.000
    C79      C        0.82870    0.83145    0.36310    1.000
    C80      C        0.85169    0.78401    0.37600    1.000
    H105     H        0.83620    0.76720    0.43200    1.000
    H106     H        0.88520    0.78870    0.39420    1.000
    C81      C        0.84902    0.75329    0.28200    1.000
    H107     H        0.81590    0.74380    0.27020    1.000
    H108     H        0.85970    0.77170    0.22340    1.000
    C82      C        0.87957    0.70953    0.29300    1.000
    H109     H        0.86890    0.69150    0.35230    1.000
    H110     H        0.91260    0.71930    0.30480    1.000
    C83      C        0.87788    0.67749    0.20130    1.000
    H111     H        0.88690    0.69610    0.14170    1.000
    H112     H        0.90160    0.65220    0.20970    1.000
    C84      C        0.83044    0.65511    0.18220    1.000
    Co15     Co       0.24361    0.39183    0.84478    1.000
    Co16     Co       0.34566    0.43676    0.86692    1.000
    O57      O        0.29168    0.42785    0.75680    1.000
    O58      O        0.25791    0.41385    0.60950    1.000
    O59      O        0.30263    0.55271    0.36030    1.000
    O60      O        0.32556    0.53505    0.20540    1.000
    C85      C        0.29029    0.43141    0.66160    1.000
    C86      C        0.32924    0.45800    0.61070    1.000
    H113     H        0.35930    0.44110    0.62240    1.000
    H114     H        0.33200    0.48950    0.64220    1.000
    C87      C        0.32268    0.46443    0.49900    1.000
    H115     H        0.29370    0.48300    0.48660    1.000
    H116     H        0.31870    0.43320    0.46710    1.000
    C88      C        0.36452    0.48944    0.45260    1.000
    H117     H        0.39370    0.47220    0.47050    1.000
    H118     H        0.36690    0.52150    0.48130    1.000
    C89      C        0.36130    0.49325    0.33920    1.000
    H119     H        0.39300    0.50100    0.31280    1.000
    H120     H        0.35240    0.46200    0.31210    1.000
    C90      C        0.32670    0.52936    0.30000    1.000
    O61      O        0.35592    0.36618    0.86200    1.000
    O62      O        0.28442    0.33251    0.85320    1.000
    O63      O        0.30550    0.13976    0.75700    1.000
    O64      O        0.31533    0.14990    0.59550    1.000
    C91      C        0.32870    0.33145    0.86310    1.000
    C92      C        0.35169    0.28401    0.87600    1.000
    H121     H        0.33620    0.26720    0.93200    1.000
    H122     H        0.38520    0.28870    0.89420    1.000
    C93      C        0.34902    0.25329    0.78200    1.000
    H123     H        0.31590    0.24380    0.77020    1.000
    H124     H        0.35970    0.27170    0.72340    1.000
    C94      C        0.37957    0.20953    0.79300    1.000
    H125     H        0.36890    0.19150    0.85230    1.000
    H126     H        0.41260    0.21930    0.80480    1.000
    C95      C        0.37788    0.17749    0.70130    1.000
    H127     H        0.38690    0.19610    0.64170    1.000
    H128     H        0.40160    0.15220    0.70970    1.000
    C96      C        0.33044    0.15511    0.68220    1.000
    Co17     Co       0.14183    0.00639    0.40522    1.000
    Co18     Co       0.18676    0.90434    0.38308    1.000
    O65      O        0.17785    0.95832    0.49320    1.000
    O66      O        0.16385    0.99209    0.64050    1.000
    O67      O        0.30271    0.94737    0.88970    1.000
    O68      O        0.28505    0.92444    0.04460    1.000
    C97      C        0.18141    0.95971    0.58840    1.000
    C98      C        0.20800    0.92076    0.63930    1.000
    H129     H        0.19110    0.89070    0.62760    1.000
    H130     H        0.23950    0.91800    0.60780    1.000
    C99      C        0.21443    0.92732    0.75100    1.000
    H131     H        0.23300    0.95630    0.76340    1.000
    H132     H        0.18320    0.93130    0.78290    1.000
    C100     C        0.23944    0.88548    0.79740    1.000
    H133     H        0.22220    0.85630    0.77950    1.000
    H134     H        0.27150    0.88310    0.76870    1.000
    C101     C        0.24325    0.88870    0.91080    1.000
    H135     H        0.25100    0.85700    0.93720    1.000
    H136     H        0.21200    0.89760    0.93790    1.000
    C102     C        0.27936    0.92330    0.95000    1.000
    O69      O        0.11618    0.89408    0.38800    1.000
    O70      O        0.08251    0.96558    0.39680    1.000
    O71      O        0.88976    0.94450    0.49300    1.000
    O72      O        0.89990    0.93467    0.65450    1.000
    C103     C        0.08145    0.92130    0.38690    1.000
    C104     C        0.03401    0.89831    0.37400    1.000
    H137     H        0.01720    0.91380    0.31800    1.000
    H138     H        0.03870    0.86480    0.35580    1.000
    C105     C        0.00329    0.90098    0.46800    1.000
    H139     H        0.99380    0.93410    0.47980    1.000
    H140     H        0.02170    0.89030    0.52660    1.000
    C106     C        0.95953    0.87043    0.45700    1.000
    H141     H        0.94150    0.88110    0.39770    1.000
    H142     H        0.96930    0.83740    0.44520    1.000
    C107     C        0.92749    0.87212    0.54870    1.000
    H143     H        0.94610    0.86310    0.60830    1.000
    H144     H        0.90220    0.84840    0.54030    1.000
    C108     C        0.90511    0.91956    0.56780    1.000
    Co19     Co       0.64183    0.50639    0.90522    1.000
    Co20     Co       0.68676    0.40434    0.88308    1.000
    O73      O        0.67785    0.45832    0.99320    1.000
    O74      O        0.66385    0.49209    0.14050    1.000
    O75      O        0.80271    0.44737    0.38970    1.000
    O76      O        0.78505    0.42444    0.54460    1.000
    C109     C        0.68141    0.45971    0.08840    1.000
    C110     C        0.70800    0.42076    0.13930    1.000
    H145     H        0.69110    0.39070    0.12760    1.000
    H146     H        0.73950    0.41800    0.10780    1.000
    C111     C        0.71443    0.42732    0.25100    1.000
    H147     H        0.73300    0.45630    0.26340    1.000
    H148     H        0.68320    0.43130    0.28290    1.000
    C112     C        0.73944    0.38548    0.29740    1.000
    H149     H        0.72220    0.35630    0.27950    1.000
    H150     H        0.77150    0.38310    0.26870    1.000
    C113     C        0.74325    0.38870    0.41080    1.000
    H151     H        0.75100    0.35700    0.43720    1.000
    H152     H        0.71200    0.39760    0.43790    1.000
    C114     C        0.77936    0.42330    0.45000    1.000
    O77      O        0.61618    0.39408    0.88800    1.000
    O78      O        0.58251    0.46558    0.89680    1.000
    O79      O        0.38976    0.44450    0.99300    1.000
    O80      O        0.39990    0.43467    0.15450    1.000
    C115     C        0.58145    0.42130    0.88690    1.000
    C116     C        0.53401    0.39831    0.87400    1.000
    H153     H        0.51720    0.41380    0.81800    1.000
    H154     H        0.53870    0.36480    0.85580    1.000
    C117     C        0.50329    0.40098    0.96800    1.000
    H155     H        0.49380    0.43410    0.97980    1.000
    H156     H        0.52170    0.39030    0.02660    1.000
    C118     C        0.45953    0.37043    0.95700    1.000
    H157     H        0.44150    0.38110    0.89770    1.000
    H158     H        0.46930    0.33740    0.94520    1.000
    C119     C        0.42749    0.37212    0.04870    1.000
    H159     H        0.44610    0.36310    0.10830    1.000
    H160     H        0.40220    0.34840    0.04030    1.000
    C120     C        0.40511    0.41956    0.06780    1.000
    Co21     Co       0.35817    0.99361    0.90522    1.000
    Co22     Co       0.31324    0.09566    0.88308    1.000
    O81      O        0.32215    0.04168    0.99320    1.000
    O82      O        0.33615    0.00791    0.14050    1.000
    O83      O        0.19729    0.05263    0.38970    1.000
    O84      O        0.21495    0.07556    0.54460    1.000
    C121     C        0.31859    0.04029    0.08840    1.000
    C122     C        0.29200    0.07924    0.13930    1.000
    H161     H        0.30890    0.10930    0.12760    1.000
    H162     H        0.26050    0.08200    0.10780    1.000
    C123     C        0.28557    0.07268    0.25100    1.000
    H163     H        0.26700    0.04370    0.26340    1.000
    H164     H        0.31680    0.06870    0.28290    1.000
    C124     C        0.26056    0.11452    0.29740    1.000
    H165     H        0.27780    0.14370    0.27950    1.000
    H166     H        0.22850    0.11690    0.26870    1.000
    C125     C        0.25675    0.11130    0.41080    1.000
    H167     H        0.24900    0.14300    0.43720    1.000
    H168     H        0.28800    0.10240    0.43790    1.000
    C126     C        0.22064    0.07670    0.45000    1.000
    O85      O        0.38382    0.10592    0.88800    1.000
    O86      O        0.41749    0.03442    0.89680    1.000
    O87      O        0.61024    0.05550    0.99300    1.000
    O88      O        0.60010    0.06533    0.15450    1.000
    C127     C        0.41855    0.07870    0.88690    1.000
    C128     C        0.46599    0.10169    0.87400    1.000
    H169     H        0.48280    0.08620    0.81800    1.000
    H170     H        0.46130    0.13520    0.85580    1.000
    C129     C        0.49671    0.09902    0.96800    1.000
    H171     H        0.50620    0.06590    0.97980    1.000
    H172     H        0.47830    0.10970    0.02660    1.000
    C130     C        0.54047    0.12957    0.95700    1.000
    H173     H        0.55850    0.11890    0.89770    1.000
    H174     H        0.53070    0.16260    0.94520    1.000
    C131     C        0.57251    0.12788    0.04870    1.000
    H175     H        0.55390    0.13690    0.10830    1.000
    H176     H        0.59780    0.15160    0.04030    1.000
    C132     C        0.59489    0.08044    0.06780    1.000
    Co23     Co       0.85817    0.49361    0.40522    1.000
    Co24     Co       0.81324    0.59566    0.38308    1.000
    O89      O        0.82215    0.54168    0.49320    1.000
    O90      O        0.83615    0.50791    0.64050    1.000
    O91      O        0.69729    0.55263    0.88970    1.000
    O92      O        0.71495    0.57556    0.04460    1.000
    C133     C        0.81859    0.54029    0.58840    1.000
    C134     C        0.79200    0.57924    0.63930    1.000
    H177     H        0.80890    0.60930    0.62760    1.000
    H178     H        0.76050    0.58200    0.60780    1.000
    C135     C        0.78557    0.57268    0.75100    1.000
    H179     H        0.76700    0.54370    0.76340    1.000
    H180     H        0.81680    0.56870    0.78290    1.000
    C136     C        0.76056    0.61452    0.79740    1.000
    H181     H        0.77780    0.64370    0.77950    1.000
    H182     H        0.72850    0.61690    0.76870    1.000
    C137     C        0.75675    0.61130    0.91080    1.000
    H183     H        0.74900    0.64300    0.93720    1.000
    H184     H        0.78800    0.60240    0.93790    1.000
    C138     C        0.72064    0.57670    0.95000    1.000
    O93      O        0.88382    0.60592    0.38800    1.000
    O94      O        0.91749    0.53442    0.39680    1.000
    O95      O        0.11024    0.55550    0.49300    1.000
    O96      O        0.10010    0.56533    0.65450    1.000
    C139     C        0.91855    0.57870    0.38690    1.000
    C140     C        0.96599    0.60169    0.37400    1.000
    H185     H        0.98280    0.58620    0.31800    1.000
    H186     H        0.96130    0.63520    0.35580    1.000
    C141     C        0.99671    0.59902    0.46800    1.000
    H187     H        0.00620    0.56590    0.47980    1.000
    H188     H        0.97830    0.60970    0.52660    1.000
    C142     C        0.04047    0.62957    0.45700    1.000
    H189     H        0.05850    0.61890    0.39770    1.000
    H190     H        0.03070    0.66260    0.44520    1.000
    C143     C        0.07251    0.62788    0.54870    1.000
    H191     H        0.05390    0.63690    0.60830    1.000
    H192     H        0.09780    0.65160    0.54030    1.000
    C144     C        0.09489    0.58044    0.56780    1.000
    Co25     Co       0.24361    0.89183    0.15522    1.000
    Co26     Co       0.34566    0.93676    0.13308    1.000
    O97      O        0.29168    0.92785    0.24320    1.000
    O98      O        0.25791    0.91385    0.39050    1.000
    O99      O        0.30263    0.05271    0.63970    1.000
    O100     O        0.32556    0.03505    0.79460    1.000
    C145     C        0.29029    0.93141    0.33840    1.000
    C146     C        0.32924    0.95800    0.38930    1.000
    H193     H        0.35930    0.94110    0.37760    1.000
    H194     H        0.33200    0.98950    0.35780    1.000
    C147     C        0.32268    0.96443    0.50100    1.000
    H195     H        0.29370    0.98300    0.51340    1.000
    H196     H        0.31870    0.93320    0.53290    1.000
    C148     C        0.36452    0.98944    0.54740    1.000
    H197     H        0.39370    0.97220    0.52950    1.000
    H198     H        0.36690    0.02150    0.51870    1.000
    C149     C        0.36130    0.99325    0.66080    1.000
    H199     H        0.39300    0.00100    0.68720    1.000
    H200     H        0.35240    0.96200    0.68790    1.000
    C150     C        0.32670    0.02936    0.70000    1.000
    O101     O        0.35592    0.86618    0.13800    1.000
    O102     O        0.28442    0.83251    0.14680    1.000
    O103     O        0.30550    0.63976    0.24300    1.000
    O104     O        0.31533    0.64990    0.40450    1.000
    C151     C        0.32870    0.83145    0.13690    1.000
    C152     C        0.35169    0.78401    0.12400    1.000
    H201     H        0.33620    0.76720    0.06800    1.000
    H202     H        0.38520    0.78870    0.10580    1.000
    C153     C        0.34902    0.75329    0.21800    1.000
    H203     H        0.31590    0.74380    0.22980    1.000
    H204     H        0.35970    0.77170    0.27660    1.000
    C154     C        0.37957    0.70953    0.20700    1.000
    H205     H        0.36890    0.69150    0.14770    1.000
    H206     H        0.41260    0.71930    0.19520    1.000
    C155     C        0.37788    0.67749    0.29870    1.000
    H207     H        0.38690    0.69610    0.35830    1.000
    H208     H        0.40160    0.65220    0.29030    1.000
    C156     C        0.33044    0.65511    0.31780    1.000
    Co27     Co       0.74361    0.39183    0.65522    1.000
    Co28     Co       0.84566    0.43676    0.63308    1.000
    O105     O        0.79168    0.42785    0.74320    1.000
    O106     O        0.75791    0.41385    0.89050    1.000
    O107     O        0.80263    0.55271    0.13970    1.000
    O108     O        0.82556    0.53505    0.29460    1.000
    C157     C        0.79029    0.43141    0.83840    1.000
    C158     C        0.82924    0.45800    0.88930    1.000
    H209     H        0.85930    0.44110    0.87760    1.000
    H210     H        0.83200    0.48950    0.85780    1.000
    C159     C        0.82268    0.46443    0.00100    1.000
    H211     H        0.79370    0.48300    0.01340    1.000
    H212     H        0.81870    0.43320    0.03290    1.000
    C160     C        0.86452    0.48944    0.04740    1.000
    H213     H        0.89370    0.47220    0.02950    1.000
    H214     H        0.86690    0.52150    0.01870    1.000
    C161     C        0.86130    0.49325    0.16080    1.000
    H215     H        0.89300    0.50100    0.18720    1.000
    H216     H        0.85240    0.46200    0.18790    1.000
    C162     C        0.82670    0.52936    0.20000    1.000
    O109     O        0.85592    0.36618    0.63800    1.000
    O110     O        0.78442    0.33251    0.64680    1.000
    O111     O        0.80550    0.13976    0.74300    1.000
    O112     O        0.81533    0.14990    0.90450    1.000
    C163     C        0.82870    0.33145    0.63690    1.000
    C164     C        0.85169    0.28401    0.62400    1.000
    H217     H        0.83620    0.26720    0.56800    1.000
    H218     H        0.88520    0.28870    0.60580    1.000
    C165     C        0.84902    0.25329    0.71800    1.000
    H219     H        0.81590    0.24380    0.72980    1.000
    H220     H        0.85970    0.27170    0.77660    1.000
    C166     C        0.87957    0.20953    0.70700    1.000
    H221     H        0.86890    0.19150    0.64770    1.000
    H222     H        0.91260    0.21930    0.69520    1.000
    C167     C        0.87788    0.17749    0.79870    1.000
    H223     H        0.88690    0.19610    0.85830    1.000
    H224     H        0.90160    0.15220    0.79030    1.000
    C168     C        0.83044    0.15511    0.81780    1.000
    Co29     Co       0.25639    0.10817    0.65522    1.000
    Co30     Co       0.15434    0.06324    0.63308    1.000
    O113     O        0.20832    0.07215    0.74320    1.000
    O114     O        0.24209    0.08615    0.89050    1.000
    O115     O        0.19737    0.94729    0.13970    1.000
    O116     O        0.17444    0.96495    0.29460    1.000
    C169     C        0.20971    0.06859    0.83840    1.000
    C170     C        0.17076    0.04200    0.88930    1.000
    H225     H        0.14070    0.05890    0.87760    1.000
    H226     H        0.16800    0.01050    0.85780    1.000
    C171     C        0.17732    0.03557    0.00100    1.000
    H227     H        0.20630    0.01700    0.01340    1.000
    H228     H        0.18130    0.06680    0.03290    1.000
    C172     C        0.13548    0.01056    0.04740    1.000
    H229     H        0.10630    0.02780    0.02950    1.000
    H230     H        0.13310    0.97850    0.01870    1.000
    C173     C        0.13870    0.00675    0.16080    1.000
    H231     H        0.10700    0.99900    0.18720    1.000
    H232     H        0.14760    0.03800    0.18790    1.000
    C174     C        0.17330    0.97064    0.20000    1.000
    O117     O        0.14408    0.13382    0.63800    1.000
    O118     O        0.21558    0.16749    0.64680    1.000
    O119     O        0.19450    0.36024    0.74300    1.000
    O120     O        0.18467    0.35010    0.90450    1.000
    C175     C        0.17130    0.16855    0.63690    1.000
    C176     C        0.14831    0.21599    0.62400    1.000
    H233     H        0.16380    0.23280    0.56800    1.000
    H234     H        0.11480    0.21130    0.60580    1.000
    C177     C        0.15098    0.24671    0.71800    1.000
    H235     H        0.18410    0.25620    0.72980    1.000
    H236     H        0.14030    0.22830    0.77660    1.000
    C178     C        0.12043    0.29047    0.70700    1.000
    H237     H        0.13110    0.30850    0.64770    1.000
    H238     H        0.08740    0.28070    0.69520    1.000
    C179     C        0.12212    0.32251    0.79870    1.000
    H239     H        0.11310    0.30390    0.85830    1.000
    H240     H        0.09840    0.34780    0.79030    1.000
    C180     C        0.16956    0.34489    0.81780    1.000
    Co31     Co       0.75639    0.60817    0.15522    1.000
    Co32     Co       0.65434    0.56324    0.13308    1.000
    O121     O        0.70832    0.57215    0.24320    1.000
    O122     O        0.74209    0.58615    0.39050    1.000
    O123     O        0.69737    0.44729    0.63970    1.000
    O124     O        0.67444    0.46495    0.79460    1.000
    C181     C        0.70971    0.56859    0.33840    1.000
    C182     C        0.67076    0.54200    0.38930    1.000
    H241     H        0.64070    0.55890    0.37760    1.000
    H242     H        0.66800    0.51050    0.35780    1.000
    C183     C        0.67732    0.53557    0.50100    1.000
    H243     H        0.70630    0.51700    0.51340    1.000
    H244     H        0.68130    0.56680    0.53290    1.000
    C184     C        0.63548    0.51056    0.54740    1.000
    H245     H        0.60630    0.52780    0.52950    1.000
    H246     H        0.63310    0.47850    0.51870    1.000
    C185     C        0.63870    0.50675    0.66080    1.000
    H247     H        0.60700    0.49900    0.68720    1.000
    H248     H        0.64760    0.53800    0.68790    1.000
    C186     C        0.67330    0.47064    0.70000    1.000
    O125     O        0.64408    0.63382    0.13800    1.000
    O126     O        0.71558    0.66749    0.14680    1.000
    O127     O        0.69450    0.86024    0.24300    1.000
    O128     O        0.68467    0.85010    0.40450    1.000
    C187     C        0.67130    0.66855    0.13690    1.000
    C188     C        0.64831    0.71599    0.12400    1.000
    H249     H        0.66380    0.73280    0.06800    1.000
    H250     H        0.61480    0.71130    0.10580    1.000
    C189     C        0.65098    0.74671    0.21800    1.000
    H251     H        0.68410    0.75620    0.22980    1.000
    H252     H        0.64030    0.72830    0.27660    1.000
    C190     C        0.62043    0.79047    0.20700    1.000
    H253     H        0.63110    0.80850    0.14770    1.000
    H254     H        0.58740    0.78070    0.19520    1.000
    C191     C        0.62212    0.82251    0.29870    1.000
    H255     H        0.61310    0.80390    0.35830    1.000
    H256     H        0.59840    0.84780    0.29030    1.000
    C192     C        0.66956    0.84489    0.31780    1.000
