# CIF file generated by openbabel 3.1.0, see https://openbabel.org
data_I
_chemical_name_common 'image0'
_cell_length_a 10.4488
_cell_length_b 10.5041
_cell_length_c 6.3065
_cell_angle_alpha 90
_cell_angle_beta 115.272
_cell_angle_gamma 90
_space_group_name_H-M_alt 'P 1'
_space_group_name_Hall 'P 1'
loop_
    _symmetry_equiv_pos_as_xyz
    x,y,z
loop_
    _atom_site_label
    _atom_site_type_symbol
    _atom_site_fract_x
    _atom_site_fract_y
    _atom_site_fract_z
    _atom_site_occupancy
    C1       C        0.31590    0.20990    0.54630    1.000
    H1       H        0.39720    0.26450    0.58080    1.000
    H2       H        0.32670    0.17020    0.69190    1.000
    N1       N        0.31380    0.11080    0.38160    1.000
    H3       H        0.30020    0.14780    0.24490    1.000
    H4       H        0.23970    0.05890    0.35360    1.000
    C2       C        0.81590    0.70990    0.54630    1.000
    H5       H        0.89720    0.76450    0.58080    1.000
    H6       H        0.82670    0.67020    0.69190    1.000
    N2       N        0.81380    0.61080    0.38160    1.000
    H7       H        0.80020    0.64780    0.24490    1.000
    H8       H        0.73970    0.55890    0.35360    1.000
    C3       C        0.68410    0.20990    0.95370    1.000
    H9       H        0.60280    0.26450    0.91920    1.000
    H10      H        0.67330    0.17020    0.80810    1.000
    N3       N        0.68620    0.11080    0.11840    1.000
    H11      H        0.69980    0.14780    0.25510    1.000
    H12      H        0.76030    0.05890    0.14640    1.000
    C4       C        0.18410    0.70990    0.95370    1.000
    H13      H        0.10280    0.76450    0.91920    1.000
    H14      H        0.17330    0.67020    0.80810    1.000
    N4       N        0.18620    0.61080    0.11840    1.000
    H15      H        0.19980    0.64780    0.25510    1.000
    H16      H        0.26030    0.55890    0.14640    1.000
    C5       C        0.68410    0.79010    0.45370    1.000
    H17      H        0.60280    0.73550    0.41920    1.000
    H18      H        0.67330    0.82980    0.30810    1.000
    N5       N        0.68620    0.88920    0.61840    1.000
    H19      H        0.69980    0.85220    0.75510    1.000
    H20      H        0.76030    0.94110    0.64640    1.000
    C6       C        0.18410    0.29010    0.45370    1.000
    H21      H        0.10280    0.23550    0.41920    1.000
    H22      H        0.17330    0.32980    0.30810    1.000
    N6       N        0.18620    0.38920    0.61840    1.000
    H23      H        0.19980    0.35220    0.75510    1.000
    H24      H        0.26030    0.44110    0.64640    1.000
    C7       C        0.31590    0.79010    0.04630    1.000
    H25      H        0.39720    0.73550    0.08080    1.000
    H26      H        0.32670    0.82980    0.19190    1.000
    N7       N        0.31380    0.88920    0.88160    1.000
    H27      H        0.30020    0.85220    0.74490    1.000
    H28      H        0.23970    0.94110    0.85360    1.000
    C8       C        0.81590    0.29010    0.04630    1.000
    H29      H        0.89720    0.23550    0.08080    1.000
    H30      H        0.82670    0.32980    0.19190    1.000
    N8       N        0.81380    0.38920    0.88160    1.000
    H31      H        0.80020    0.35220    0.74490    1.000
    H32      H        0.73970    0.44110    0.85360    1.000
    Ag1      Ag       0.50000    0.00000    0.50000    1.000
    Ag2      Ag       0.00000    0.50000    0.50000    1.000
    Ag3      Ag       0.50000    0.00000    0.00000    1.000
    Ag4      Ag       0.00000    0.50000    0.00000    1.000
