# CIF file generated by openbabel 3.1.0, see https://openbabel.org
data_I
_chemical_name_common 'image0'
_cell_length_a 9.3366
_cell_length_b 21.917
_cell_length_c 24.057
_cell_angle_alpha 90
_cell_angle_beta 90
_cell_angle_gamma 90
_space_group_name_H-M_alt 'P 1'
_space_group_name_Hall 'P 1'
loop_
    _symmetry_equiv_pos_as_xyz
    x,y,z
loop_
    _atom_site_label
    _atom_site_type_symbol
    _atom_site_fract_x
    _atom_site_fract_y
    _atom_site_fract_z
    _atom_site_occupancy
    In1      In       0.15952    0.10985    0.02502    1.000
    In2      In       0.82446    0.26398    0.17820    1.000
    O1       O        0.96570    0.11250    0.07670    1.000
    O2       O        0.17560    0.19590    0.07980    1.000
    O3       O        0.03740    0.25460    0.13350    1.000
    O4       O        0.83760    0.16930    0.13480    1.000
    O5       O        0.85480    0.98880    0.95570    1.000
    O6       O        0.99220    0.07070    0.96690    1.000
    O7       O        0.93470    0.20960    0.24260    1.000
    O8       O        0.98330    0.32840    0.22370    1.000
    O9       O        0.18440    0.32400    0.27430    1.000
    O10      O        0.14020    0.20450    0.29090    1.000
    O11      O        0.66360    0.26530    0.10780    1.000
    O12      O        0.85570    0.35220    0.12840    1.000
    O13      O        0.79450    0.40080    0.05050    1.000
    O14      O        0.60380    0.31150    0.02800    1.000
    N1       N        0.36810    0.09830    0.06440    1.000
    N2       N        0.58270    0.11520    0.09990    1.000
    C1       C        0.94460    0.15890    0.10580    1.000
    C2       C        0.06520    0.20700    0.10600    1.000
    C3       C        0.95720    0.01710    0.97820    1.000
    C4       C        0.04740    0.23160    0.26320    1.000
    C5       C        0.07320    0.30100    0.25190    1.000
    C6       C        0.67420    0.30740    0.07230    1.000
    C7       C        0.78450    0.35810    0.08470    1.000
    C8       C        0.45100    0.04660    0.05840    1.000
    H1       H        0.42130    0.01010    0.04240    1.000
    C9       C        0.45410    0.13790    0.08960    1.000
    H2       H        0.42690    0.17740    0.09900    1.000
    C10      C        0.58260    0.05760    0.07960    1.000
    H3       H        0.65930    0.03050    0.08020    1.000
    In3      In       0.34048    0.89015    0.52502    1.000
    In4      In       0.67554    0.73602    0.67820    1.000
    O15      O        0.53430    0.88750    0.57670    1.000
    O16      O        0.32440    0.80410    0.57980    1.000
    O17      O        0.46260    0.74540    0.63350    1.000
    O18      O        0.66240    0.83070    0.63480    1.000
    O19      O        0.64520    0.01120    0.45570    1.000
    O20      O        0.50780    0.92930    0.46690    1.000
    O21      O        0.56530    0.79040    0.74260    1.000
    O22      O        0.51670    0.67160    0.72370    1.000
    O23      O        0.31560    0.67600    0.77430    1.000
    O24      O        0.35980    0.79550    0.79090    1.000
    O25      O        0.83640    0.73470    0.60780    1.000
    O26      O        0.64430    0.64780    0.62840    1.000
    O27      O        0.70550    0.59920    0.55050    1.000
    O28      O        0.89620    0.68850    0.52800    1.000
    N3       N        0.13190    0.90170    0.56440    1.000
    N4       N        0.91730    0.88480    0.59990    1.000
    C11      C        0.55540    0.84110    0.60580    1.000
    C12      C        0.43480    0.79300    0.60600    1.000
    C13      C        0.54280    0.98290    0.47820    1.000
    C14      C        0.45260    0.76840    0.76320    1.000
    C15      C        0.42680    0.69900    0.75190    1.000
    C16      C        0.82580    0.69260    0.57230    1.000
    C17      C        0.71550    0.64190    0.58470    1.000
    C18      C        0.04900    0.95340    0.55840    1.000
    H4       H        0.07870    0.98990    0.54240    1.000
    C19      C        0.04590    0.86210    0.58960    1.000
    H5       H        0.07310    0.82260    0.59900    1.000
    C20      C        0.91740    0.94240    0.57960    1.000
    H6       H        0.84070    0.96950    0.58020    1.000
    In5      In       0.84048    0.60985    0.47498    1.000
    In6      In       0.17554    0.76398    0.32180    1.000
    O29      O        0.03430    0.61250    0.42330    1.000
    O30      O        0.82440    0.69590    0.42020    1.000
    O31      O        0.96260    0.75460    0.36650    1.000
    O32      O        0.16240    0.66930    0.36520    1.000
    O33      O        0.14520    0.48880    0.54430    1.000
    O34      O        0.00780    0.57070    0.53310    1.000
    O35      O        0.06530    0.70960    0.25740    1.000
    O36      O        0.01670    0.82840    0.27630    1.000
    O37      O        0.81560    0.82400    0.22570    1.000
    O38      O        0.85980    0.70450    0.20910    1.000
    O39      O        0.33640    0.76530    0.39220    1.000
    O40      O        0.14430    0.85220    0.37160    1.000
    O41      O        0.20550    0.90080    0.44950    1.000
    O42      O        0.39620    0.81150    0.47200    1.000
    N5       N        0.63190    0.59830    0.43560    1.000
    N6       N        0.41730    0.61520    0.40010    1.000
    C21      C        0.05540    0.65890    0.39420    1.000
    C22      C        0.93480    0.70700    0.39400    1.000
    C23      C        0.04280    0.51710    0.52180    1.000
    C24      C        0.95260    0.73160    0.23680    1.000
    C25      C        0.92680    0.80100    0.24810    1.000
    C26      C        0.32580    0.80740    0.42770    1.000
    C27      C        0.21550    0.85810    0.41530    1.000
    C28      C        0.54900    0.54660    0.44160    1.000
    H7       H        0.57870    0.51010    0.45760    1.000
    C29      C        0.54590    0.63790    0.41040    1.000
    H8       H        0.57310    0.67740    0.40100    1.000
    C30      C        0.41740    0.55760    0.42040    1.000
    H9       H        0.34070    0.53050    0.41980    1.000
    In7      In       0.65952    0.39015    0.97498    1.000
    In8      In       0.32446    0.23602    0.82180    1.000
    O43      O        0.46570    0.38750    0.92330    1.000
    O44      O        0.67560    0.30410    0.92020    1.000
    O45      O        0.53740    0.24540    0.86650    1.000
    O46      O        0.33760    0.33070    0.86520    1.000
    O47      O        0.35480    0.51120    0.04430    1.000
    O48      O        0.49220    0.42930    0.03310    1.000
    O49      O        0.43470    0.29040    0.75740    1.000
    O50      O        0.48330    0.17160    0.77630    1.000
    O51      O        0.68440    0.17600    0.72570    1.000
    O52      O        0.64020    0.29550    0.70910    1.000
    O53      O        0.16360    0.23470    0.89220    1.000
    O54      O        0.35570    0.14780    0.87160    1.000
    O55      O        0.29450    0.09920    0.94950    1.000
    O56      O        0.10380    0.18850    0.97200    1.000
    N7       N        0.86810    0.40170    0.93560    1.000
    N8       N        0.08270    0.38480    0.90010    1.000
    C31      C        0.44460    0.34110    0.89420    1.000
    C32      C        0.56520    0.29300    0.89400    1.000
    C33      C        0.45720    0.48290    0.02180    1.000
    C34      C        0.54740    0.26840    0.73680    1.000
    C35      C        0.57320    0.19900    0.74810    1.000
    C36      C        0.17420    0.19260    0.92770    1.000
    C37      C        0.28450    0.14190    0.91530    1.000
    C38      C        0.95100    0.45340    0.94160    1.000
    H10      H        0.92130    0.48990    0.95760    1.000
    C39      C        0.95410    0.36210    0.91040    1.000
    H11      H        0.92690    0.32260    0.90100    1.000
    C40      C        0.08260    0.44240    0.92040    1.000
    H12      H        0.15930    0.46950    0.91980    1.000
    In9      In       0.84048    0.89015    0.97498    1.000
    In10     In       0.17554    0.73602    0.82180    1.000
    O57      O        0.03430    0.88750    0.92330    1.000
    O58      O        0.82440    0.80410    0.92020    1.000
    O59      O        0.96260    0.74540    0.86650    1.000
    O60      O        0.16240    0.83070    0.86520    1.000
    O61      O        0.14520    0.01120    0.04430    1.000
    O62      O        0.00780    0.92930    0.03310    1.000
    O63      O        0.06530    0.79040    0.75740    1.000
    O64      O        0.01670    0.67160    0.77630    1.000
    O65      O        0.81560    0.67600    0.72570    1.000
    O66      O        0.85980    0.79550    0.70910    1.000
    O67      O        0.33640    0.73470    0.89220    1.000
    O68      O        0.14430    0.64780    0.87160    1.000
    O69      O        0.20550    0.59920    0.94950    1.000
    O70      O        0.39620    0.68850    0.97200    1.000
    N9       N        0.63190    0.90170    0.93560    1.000
    N10      N        0.41730    0.88480    0.90010    1.000
    C41      C        0.05540    0.84110    0.89420    1.000
    C42      C        0.93480    0.79300    0.89400    1.000
    C43      C        0.04280    0.98290    0.02180    1.000
    C44      C        0.95260    0.76840    0.73680    1.000
    C45      C        0.92680    0.69900    0.74810    1.000
    C46      C        0.32580    0.69260    0.92770    1.000
    C47      C        0.21550    0.64190    0.91530    1.000
    C48      C        0.54900    0.95340    0.94160    1.000
    H13      H        0.57870    0.98990    0.95760    1.000
    C49      C        0.54590    0.86210    0.91040    1.000
    H14      H        0.57310    0.82260    0.90100    1.000
    C50      C        0.41740    0.94240    0.92040    1.000
    H15      H        0.34070    0.96950    0.91980    1.000
    In11     In       0.65952    0.10985    0.47498    1.000
    In12     In       0.32446    0.26398    0.32180    1.000
    O71      O        0.46570    0.11250    0.42330    1.000
    O72      O        0.67560    0.19590    0.42020    1.000
    O73      O        0.53740    0.25460    0.36650    1.000
    O74      O        0.33760    0.16930    0.36520    1.000
    O75      O        0.35480    0.98880    0.54430    1.000
    O76      O        0.49220    0.07070    0.53310    1.000
    O77      O        0.43470    0.20960    0.25740    1.000
    O78      O        0.48330    0.32840    0.27630    1.000
    O79      O        0.68440    0.32400    0.22570    1.000
    O80      O        0.64020    0.20450    0.20910    1.000
    O81      O        0.16360    0.26530    0.39220    1.000
    O82      O        0.35570    0.35220    0.37160    1.000
    O83      O        0.29450    0.40080    0.44950    1.000
    O84      O        0.10380    0.31150    0.47200    1.000
    N11      N        0.86810    0.09830    0.43560    1.000
    N12      N        0.08270    0.11520    0.40010    1.000
    C51      C        0.44460    0.15890    0.39420    1.000
    C52      C        0.56520    0.20700    0.39400    1.000
    C53      C        0.45720    0.01710    0.52180    1.000
    C54      C        0.54740    0.23160    0.23680    1.000
    C55      C        0.57320    0.30100    0.24810    1.000
    C56      C        0.17420    0.30740    0.42770    1.000
    C57      C        0.28450    0.35810    0.41530    1.000
    C58      C        0.95100    0.04660    0.44160    1.000
    H16      H        0.92130    0.01010    0.45760    1.000
    C59      C        0.95410    0.13790    0.41040    1.000
    H17      H        0.92690    0.17740    0.40100    1.000
    C60      C        0.08260    0.05760    0.42040    1.000
    H18      H        0.15930    0.03050    0.41980    1.000
    In13     In       0.15952    0.39015    0.52502    1.000
    In14     In       0.82446    0.23602    0.67820    1.000
    O85      O        0.96570    0.38750    0.57670    1.000
    O86      O        0.17560    0.30410    0.57980    1.000
    O87      O        0.03740    0.24540    0.63350    1.000
    O88      O        0.83760    0.33070    0.63480    1.000
    O89      O        0.85480    0.51120    0.45570    1.000
    O90      O        0.99220    0.42930    0.46690    1.000
    O91      O        0.93470    0.29040    0.74260    1.000
    O92      O        0.98330    0.17160    0.72370    1.000
    O93      O        0.18440    0.17600    0.77430    1.000
    O94      O        0.14020    0.29550    0.79090    1.000
    O95      O        0.66360    0.23470    0.60780    1.000
    O96      O        0.85570    0.14780    0.62840    1.000
    O97      O        0.79450    0.09920    0.55050    1.000
    O98      O        0.60380    0.18850    0.52800    1.000
    N13      N        0.36810    0.40170    0.56440    1.000
    N14      N        0.58270    0.38480    0.59990    1.000
    C61      C        0.94460    0.34110    0.60580    1.000
    C62      C        0.06520    0.29300    0.60600    1.000
    C63      C        0.95720    0.48290    0.47820    1.000
    C64      C        0.04740    0.26840    0.76320    1.000
    C65      C        0.07320    0.19900    0.75190    1.000
    C66      C        0.67420    0.19260    0.57230    1.000
    C67      C        0.78450    0.14190    0.58470    1.000
    C68      C        0.45100    0.45340    0.55840    1.000
    H19      H        0.42130    0.48990    0.54240    1.000
    C69      C        0.45410    0.36210    0.58960    1.000
    H20      H        0.42690    0.32260    0.59900    1.000
    C70      C        0.58260    0.44240    0.57960    1.000
    H21      H        0.65930    0.46950    0.58020    1.000
    In15     In       0.34048    0.60985    0.02502    1.000
    In16     In       0.67554    0.76398    0.17820    1.000
    O99      O        0.53430    0.61250    0.07670    1.000
    O100     O        0.32440    0.69590    0.07980    1.000
    O101     O        0.46260    0.75460    0.13350    1.000
    O102     O        0.66240    0.66930    0.13480    1.000
    O103     O        0.64520    0.48880    0.95570    1.000
    O104     O        0.50780    0.57070    0.96690    1.000
    O105     O        0.56530    0.70960    0.24260    1.000
    O106     O        0.51670    0.82840    0.22370    1.000
    O107     O        0.31560    0.82400    0.27430    1.000
    O108     O        0.35980    0.70450    0.29090    1.000
    O109     O        0.83640    0.76530    0.10780    1.000
    O110     O        0.64430    0.85220    0.12840    1.000
    O111     O        0.70550    0.90080    0.05050    1.000
    O112     O        0.89620    0.81150    0.02800    1.000
    N15      N        0.13190    0.59830    0.06440    1.000
    N16      N        0.91730    0.61520    0.09990    1.000
    C71      C        0.55540    0.65890    0.10580    1.000
    C72      C        0.43480    0.70700    0.10600    1.000
    C73      C        0.54280    0.51710    0.97820    1.000
    C74      C        0.45260    0.73160    0.26320    1.000
    C75      C        0.42680    0.80100    0.25190    1.000
    C76      C        0.82580    0.80740    0.07230    1.000
    C77      C        0.71550    0.85810    0.08470    1.000
    C78      C        0.04900    0.54660    0.05840    1.000
    H22      H        0.07870    0.51010    0.04240    1.000
    C79      C        0.04590    0.63790    0.08960    1.000
    H23      H        0.07310    0.67740    0.09900    1.000
    C80      C        0.91740    0.55760    0.07960    1.000
    H24      H        0.84070    0.53050    0.08020    1.000
