# CIF file generated by openbabel 3.1.0, see https://openbabel.org
data_I
_chemical_name_common 'image0'
_cell_length_a 17.5811
_cell_length_b 14.0978
_cell_length_c 18.7871
_cell_angle_alpha 90
_cell_angle_beta 97.723
_cell_angle_gamma 90
_space_group_name_H-M_alt 'P 1'
_space_group_name_Hall 'P 1'
loop_
    _symmetry_equiv_pos_as_xyz
    x,y,z
loop_
    _atom_site_label
    _atom_site_type_symbol
    _atom_site_fract_x
    _atom_site_fract_y
    _atom_site_fract_z
    _atom_site_occupancy
    Mn1      Mn       0.61542    0.42917    0.99462    1.000
    Mn2      Mn       0.86755    0.57668    0.99482    1.000
    N1       N        0.67566    0.31326    0.93197    1.000
    O1       O        0.81913    0.02675    0.55779    1.000
    O2       O        0.71076    0.09754    0.57924    1.000
    C1       C        0.77784    0.06765    0.59772    1.000
    C2       C        0.81179    0.08453    0.67527    1.000
    C3       C        0.77125    0.13520    0.72116    1.000
    H1       H        0.72150    0.15840    0.70380    1.000
    C4       C        0.80230    0.15274    0.79236    1.000
    C5       C        0.87612    0.11909    0.81655    1.000
    H2       H        0.89880    0.13190    0.86440    1.000
    C6       C        0.91646    0.06733    0.77141    1.000
    H3       H        0.96610    0.04370    0.78870    1.000
    C7       C        0.88443    0.04982    0.70080    1.000
    H4       H        0.91220    0.01410    0.67000    1.000
    C8       C        0.64150    0.24671    0.88724    1.000
    H5       H        0.58810    0.23620    0.88670    1.000
    C9       C        0.67998    0.19276    0.84198    1.000
    H6       H        0.65300    0.14660    0.81150    1.000
    C10      C        0.75826    0.20633    0.84113    1.000
    C11      C        0.79410    0.27345    0.88873    1.000
    H7       H        0.84780    0.28380    0.89140    1.000
    C12      C        0.75169    0.32477    0.93186    1.000
    H8       H        0.77750    0.37080    0.96330    1.000
    N2       N        0.54589    0.16195    0.56484    1.000
    O3       O        0.41212    0.45405    0.93935    1.000
    O4       O        0.52372    0.40370    0.90836    1.000
    C13      C        0.45275    0.42038    0.89576    1.000
    C14      C        0.41376    0.39516    0.82099    1.000
    C15      C        0.45332    0.34543    0.77356    1.000
    H9       H        0.50510    0.32750    0.78830    1.000
    C16      C        0.41855    0.32119    0.70465    1.000
    C17      C        0.34262    0.34976    0.68323    1.000
    H10      H        0.31820    0.33510    0.63630    1.000
    C18      C        0.30291    0.39948    0.73036    1.000
    H11      H        0.25150    0.41880    0.71540    1.000
    C19      C        0.33791    0.42118    0.79933    1.000
    H12      H        0.30990    0.45380    0.83170    1.000
    C20      C        0.55686    0.15001    0.63663    1.000
    H13      H        0.59440    0.10550    0.65650    1.000
    C21      C        0.51649    0.19906    0.68280    1.000
    H14      H        0.52600    0.18710    0.73300    1.000
    C22      C        0.46143    0.26650    0.65592    1.000
    C23      C        0.44909    0.27758    0.58177    1.000
    H15      H        0.41170    0.32130    0.56030    1.000
    C24      C        0.49177    0.22435    0.53935    1.000
    H16      H        0.48190    0.23280    0.48880    1.000
    N3       N        0.07258    0.18314    0.57050    1.000
    O5       O        0.92325    0.46674    0.94139    1.000
    O6       O        0.03598    0.40659    0.92025    1.000
    C25      C        0.96783    0.43324    0.90095    1.000
    C26      C        0.93740    0.42144    0.82254    1.000
    C27      C        0.97867    0.36959    0.77757    1.000
    H17      H        0.02770    0.34500    0.79590    1.000
    C28      C        0.94905    0.35329    0.70610    1.000
    C29      C        0.87725    0.39087    0.67943    1.000
    H18      H        0.85610    0.37960    0.63090    1.000
    C30      C        0.83718    0.44416    0.72333    1.000
    H19      H        0.78910    0.47100    0.70440    1.000
    C31      C        0.86616    0.45927    0.79509    1.000
    H20      H        0.83760    0.49510    0.82520    1.000
    C32      C        0.10892    0.24556    0.61732    1.000
    H21      H        0.16310    0.25120    0.61990    1.000
    C33      C        0.07190    0.30185    0.66189    1.000
    H22      H        0.10040    0.34450    0.69440    1.000
    C34      C        0.99218    0.29577    0.65888    1.000
    C35      C        0.95442    0.23182    0.60968    1.000
    H23      H        0.90010    0.22620    0.60480    1.000
    C36      C        0.99605    0.17681    0.56815    1.000
    H24      H        0.96930    0.13210    0.53620    1.000
    N4       N        0.80877    0.80626    0.55365    1.000
    O7       O        0.66322    0.52969    0.92912    1.000
    O8       O        0.77492    0.58999    0.90652    1.000
    C37      C        0.70700    0.56211    0.88780    1.000
    C38      C        0.67616    0.56943    0.80835    1.000
    C39      C        0.71610    0.62170    0.76243    1.000
    H25      H        0.76320    0.65120    0.78090    1.000
    C40      C        0.68789    0.63130    0.68961    1.000
    C41      C        0.61879    0.58606    0.66333    1.000
    H26      H        0.59870    0.59190    0.61400    1.000
    C42      C        0.57949    0.53296    0.70854    1.000
    H27      H        0.53300    0.50200    0.68990    1.000
    C43      C        0.60772    0.52465    0.78117    1.000
    H28      H        0.58040    0.48850    0.81210    1.000
    C44      C        0.84657    0.74978    0.60464    1.000
    H29      H        0.90110    0.75010    0.61040    1.000
    C45      C        0.81065    0.69151    0.64893    1.000
    H30      H        0.84020    0.65370    0.68420    1.000
    C46      C        0.73011    0.68851    0.64147    1.000
    C47      C        0.69195    0.74438    0.58708    1.000
    H31      H        0.63750    0.74280    0.57820    1.000
    C48      C        0.73177    0.80186    0.54597    1.000
    H32      H        0.70340    0.84040    0.51030    1.000
    Mn3      Mn       0.38458    0.92917    0.50538    1.000
    Mn4      Mn       0.13245    0.07668    0.50518    1.000
    N5       N        0.32434    0.81326    0.56803    1.000
    O9       O        0.18087    0.52675    0.94221    1.000
    O10      O        0.28924    0.59754    0.92076    1.000
    C49      C        0.22216    0.56765    0.90228    1.000
    C50      C        0.18821    0.58453    0.82473    1.000
    C51      C        0.22875    0.63520    0.77884    1.000
    H33      H        0.27850    0.65840    0.79620    1.000
    C52      C        0.19770    0.65274    0.70764    1.000
    C53      C        0.12388    0.61909    0.68345    1.000
    H34      H        0.10120    0.63190    0.63560    1.000
    C54      C        0.08354    0.56733    0.72859    1.000
    H35      H        0.03390    0.54370    0.71130    1.000
    C55      C        0.11557    0.54982    0.79920    1.000
    H36      H        0.08780    0.51410    0.83000    1.000
    C56      C        0.35850    0.74671    0.61276    1.000
    H37      H        0.41190    0.73620    0.61330    1.000
    C57      C        0.32002    0.69276    0.65802    1.000
    H38      H        0.34700    0.64660    0.68850    1.000
    C58      C        0.24174    0.70633    0.65887    1.000
    C59      C        0.20590    0.77345    0.61127    1.000
    H39      H        0.15220    0.78380    0.60860    1.000
    C60      C        0.24831    0.82477    0.56814    1.000
    H40      H        0.22250    0.87080    0.53670    1.000
    N6       N        0.45411    0.66195    0.93516    1.000
    O11      O        0.58788    0.95405    0.56065    1.000
    O12      O        0.47628    0.90370    0.59164    1.000
    C61      C        0.54725    0.92038    0.60424    1.000
    C62      C        0.58624    0.89516    0.67901    1.000
    C63      C        0.54668    0.84543    0.72644    1.000
    H41      H        0.49490    0.82750    0.71170    1.000
    C64      C        0.58145    0.82119    0.79535    1.000
    C65      C        0.65738    0.84976    0.81677    1.000
    H42      H        0.68180    0.83510    0.86370    1.000
    C66      C        0.69709    0.89948    0.76964    1.000
    H43      H        0.74850    0.91880    0.78460    1.000
    C67      C        0.66209    0.92118    0.70067    1.000
    H44      H        0.69010    0.95380    0.66830    1.000
    C68      C        0.44314    0.65001    0.86337    1.000
    H45      H        0.40560    0.60550    0.84350    1.000
    C69      C        0.48351    0.69906    0.81720    1.000
    H46      H        0.47400    0.68710    0.76700    1.000
    C70      C        0.53857    0.76650    0.84408    1.000
    C71      C        0.55091    0.77758    0.91823    1.000
    H47      H        0.58830    0.82130    0.93970    1.000
    C72      C        0.50823    0.72435    0.96065    1.000
    H48      H        0.51810    0.73280    0.01120    1.000
    N7       N        0.92742    0.68314    0.92950    1.000
    O13      O        0.07675    0.96674    0.55861    1.000
    O14      O        0.96402    0.90659    0.57975    1.000
    C73      C        0.03217    0.93324    0.59905    1.000
    C74      C        0.06260    0.92144    0.67746    1.000
    C75      C        0.02133    0.86959    0.72243    1.000
    H49      H        0.97230    0.84500    0.70410    1.000
    C76      C        0.05095    0.85329    0.79390    1.000
    C77      C        0.12275    0.89087    0.82057    1.000
    H50      H        0.14390    0.87960    0.86910    1.000
    C78      C        0.16282    0.94416    0.77667    1.000
    H51      H        0.21090    0.97100    0.79560    1.000
    C79      C        0.13384    0.95927    0.70491    1.000
    H52      H        0.16240    0.99510    0.67480    1.000
    C80      C        0.89108    0.74556    0.88268    1.000
    H53      H        0.83690    0.75120    0.88010    1.000
    C81      C        0.92810    0.80185    0.83811    1.000
    H54      H        0.89960    0.84450    0.80560    1.000
    C82      C        0.00782    0.79577    0.84112    1.000
    C83      C        0.04558    0.73182    0.89032    1.000
    H55      H        0.09990    0.72620    0.89520    1.000
    C84      C        0.00395    0.67681    0.93185    1.000
    H56      H        0.03070    0.63210    0.96380    1.000
    N8       N        0.19123    0.30626    0.94635    1.000
    O15      O        0.33678    0.02969    0.57088    1.000
    O16      O        0.22508    0.08999    0.59348    1.000
    C85      C        0.29300    0.06211    0.61220    1.000
    C86      C        0.32384    0.06943    0.69165    1.000
    C87      C        0.28390    0.12170    0.73757    1.000
    H57      H        0.23680    0.15120    0.71910    1.000
    C88      C        0.31211    0.13130    0.81039    1.000
    C89      C        0.38121    0.08606    0.83667    1.000
    H58      H        0.40130    0.09190    0.88600    1.000
    C90      C        0.42051    0.03296    0.79146    1.000
    H59      H        0.46700    0.00200    0.81010    1.000
    C91      C        0.39228    0.02465    0.71883    1.000
    H60      H        0.41960    0.98850    0.68790    1.000
    C92      C        0.15343    0.24978    0.89536    1.000
    H61      H        0.09890    0.25010    0.88960    1.000
    C93      C        0.18935    0.19151    0.85107    1.000
    H62      H        0.15980    0.15370    0.81580    1.000
    C94      C        0.26989    0.18851    0.85853    1.000
    C95      C        0.30805    0.24438    0.91292    1.000
    H63      H        0.36250    0.24280    0.92180    1.000
    C96      C        0.26823    0.30186    0.95403    1.000
    H64      H        0.29660    0.34040    0.98970    1.000
    Mn5      Mn       0.38458    0.57083    0.00538    1.000
    Mn6      Mn       0.13245    0.42332    0.00518    1.000
    N9       N        0.32434    0.68674    0.06803    1.000
    O17      O        0.18087    0.97325    0.44221    1.000
    O18      O        0.28924    0.90246    0.42076    1.000
    C97      C        0.22216    0.93235    0.40228    1.000
    C98      C        0.18821    0.91547    0.32473    1.000
    C99      C        0.22875    0.86480    0.27884    1.000
    H65      H        0.27850    0.84160    0.29620    1.000
    C100     C        0.19770    0.84726    0.20764    1.000
    C101     C        0.12388    0.88091    0.18345    1.000
    H66      H        0.10120    0.86810    0.13560    1.000
    C102     C        0.08354    0.93267    0.22859    1.000
    H67      H        0.03390    0.95630    0.21130    1.000
    C103     C        0.11557    0.95018    0.29920    1.000
    H68      H        0.08780    0.98590    0.33000    1.000
    C104     C        0.35850    0.75329    0.11276    1.000
    H69      H        0.41190    0.76380    0.11330    1.000
    C105     C        0.32002    0.80724    0.15802    1.000
    H70      H        0.34700    0.85340    0.18850    1.000
    C106     C        0.24174    0.79367    0.15887    1.000
    C107     C        0.20590    0.72655    0.11127    1.000
    H71      H        0.15220    0.71620    0.10860    1.000
    C108     C        0.24831    0.67523    0.06814    1.000
    H72      H        0.22250    0.62920    0.03670    1.000
    N10      N        0.45411    0.83805    0.43516    1.000
    O19      O        0.58788    0.54595    0.06065    1.000
    O20      O        0.47628    0.59630    0.09164    1.000
    C109     C        0.54725    0.57962    0.10424    1.000
    C110     C        0.58624    0.60484    0.17901    1.000
    C111     C        0.54668    0.65457    0.22644    1.000
    H73      H        0.49490    0.67250    0.21170    1.000
    C112     C        0.58145    0.67881    0.29535    1.000
    C113     C        0.65738    0.65024    0.31677    1.000
    H74      H        0.68180    0.66490    0.36370    1.000
    C114     C        0.69709    0.60052    0.26964    1.000
    H75      H        0.74850    0.58120    0.28460    1.000
    C115     C        0.66209    0.57882    0.20067    1.000
    H76      H        0.69010    0.54620    0.16830    1.000
    C116     C        0.44314    0.84999    0.36337    1.000
    H77      H        0.40560    0.89450    0.34350    1.000
    C117     C        0.48351    0.80094    0.31720    1.000
    H78      H        0.47400    0.81290    0.26700    1.000
    C118     C        0.53857    0.73350    0.34408    1.000
    C119     C        0.55091    0.72242    0.41823    1.000
    H79      H        0.58830    0.67870    0.43970    1.000
    C120     C        0.50823    0.77565    0.46065    1.000
    H80      H        0.51810    0.76720    0.51120    1.000
    N11      N        0.92742    0.81686    0.42950    1.000
    O21      O        0.07675    0.53326    0.05861    1.000
    O22      O        0.96402    0.59341    0.07975    1.000
    C121     C        0.03217    0.56676    0.09905    1.000
    C122     C        0.06260    0.57856    0.17746    1.000
    C123     C        0.02133    0.63041    0.22243    1.000
    H81      H        0.97230    0.65500    0.20410    1.000
    C124     C        0.05095    0.64671    0.29390    1.000
    C125     C        0.12275    0.60913    0.32057    1.000
    H82      H        0.14390    0.62040    0.36910    1.000
    C126     C        0.16282    0.55584    0.27667    1.000
    H83      H        0.21090    0.52900    0.29560    1.000
    C127     C        0.13384    0.54073    0.20491    1.000
    H84      H        0.16240    0.50490    0.17480    1.000
    C128     C        0.89108    0.75444    0.38268    1.000
    H85      H        0.83690    0.74880    0.38010    1.000
    C129     C        0.92810    0.69815    0.33811    1.000
    H86      H        0.89960    0.65550    0.30560    1.000
    C130     C        0.00782    0.70423    0.34112    1.000
    C131     C        0.04558    0.76818    0.39032    1.000
    H87      H        0.09990    0.77380    0.39520    1.000
    C132     C        0.00395    0.82319    0.43185    1.000
    H88      H        0.03070    0.86790    0.46380    1.000
    N12      N        0.19123    0.19374    0.44635    1.000
    O23      O        0.33678    0.47031    0.07088    1.000
    O24      O        0.22508    0.41001    0.09348    1.000
    C133     C        0.29300    0.43789    0.11220    1.000
    C134     C        0.32384    0.43057    0.19165    1.000
    C135     C        0.28390    0.37830    0.23757    1.000
    H89      H        0.23680    0.34880    0.21910    1.000
    C136     C        0.31211    0.36870    0.31039    1.000
    C137     C        0.38121    0.41394    0.33667    1.000
    H90      H        0.40130    0.40810    0.38600    1.000
    C138     C        0.42051    0.46704    0.29146    1.000
    H91      H        0.46700    0.49800    0.31010    1.000
    C139     C        0.39228    0.47535    0.21883    1.000
    H92      H        0.41960    0.51150    0.18790    1.000
    C140     C        0.15343    0.25022    0.39536    1.000
    H93      H        0.09890    0.24990    0.38960    1.000
    C141     C        0.18935    0.30849    0.35107    1.000
    H94      H        0.15980    0.34630    0.31580    1.000
    C142     C        0.26989    0.31149    0.35853    1.000
    C143     C        0.30805    0.25562    0.41292    1.000
    H95      H        0.36250    0.25720    0.42180    1.000
    C144     C        0.26823    0.19814    0.45403    1.000
    H96      H        0.29660    0.15960    0.48970    1.000
    Mn7      Mn       0.61542    0.07083    0.49462    1.000
    Mn8      Mn       0.86755    0.92332    0.49482    1.000
    N13      N        0.67566    0.18674    0.43197    1.000
    O25      O        0.81913    0.47325    0.05779    1.000
    O26      O        0.71076    0.40246    0.07924    1.000
    C145     C        0.77784    0.43235    0.09772    1.000
    C146     C        0.81179    0.41547    0.17527    1.000
    C147     C        0.77125    0.36480    0.22116    1.000
    H97      H        0.72150    0.34160    0.20380    1.000
    C148     C        0.80230    0.34726    0.29236    1.000
    C149     C        0.87612    0.38091    0.31655    1.000
    H98      H        0.89880    0.36810    0.36440    1.000
    C150     C        0.91646    0.43267    0.27141    1.000
    H99      H        0.96610    0.45630    0.28870    1.000
    C151     C        0.88443    0.45018    0.20080    1.000
    H100     H        0.91220    0.48590    0.17000    1.000
    C152     C        0.64150    0.25329    0.38724    1.000
    H101     H        0.58810    0.26380    0.38670    1.000
    C153     C        0.67998    0.30724    0.34198    1.000
    H102     H        0.65300    0.35340    0.31150    1.000
    C154     C        0.75826    0.29367    0.34113    1.000
    C155     C        0.79410    0.22655    0.38873    1.000
    H103     H        0.84780    0.21620    0.39140    1.000
    C156     C        0.75169    0.17523    0.43186    1.000
    H104     H        0.77750    0.12920    0.46330    1.000
    N14      N        0.54589    0.33805    0.06484    1.000
    O27      O        0.41212    0.04595    0.43935    1.000
    O28      O        0.52372    0.09630    0.40836    1.000
    C157     C        0.45275    0.07962    0.39576    1.000
    C158     C        0.41376    0.10484    0.32099    1.000
    C159     C        0.45332    0.15457    0.27356    1.000
    H105     H        0.50510    0.17250    0.28830    1.000
    C160     C        0.41855    0.17881    0.20465    1.000
    C161     C        0.34262    0.15024    0.18323    1.000
    H106     H        0.31820    0.16490    0.13630    1.000
    C162     C        0.30291    0.10052    0.23036    1.000
    H107     H        0.25150    0.08120    0.21540    1.000
    C163     C        0.33791    0.07882    0.29933    1.000
    H108     H        0.30990    0.04620    0.33170    1.000
    C164     C        0.55686    0.34999    0.13663    1.000
    H109     H        0.59440    0.39450    0.15650    1.000
    C165     C        0.51649    0.30094    0.18280    1.000
    H110     H        0.52600    0.31290    0.23300    1.000
    C166     C        0.46143    0.23350    0.15592    1.000
    C167     C        0.44909    0.22242    0.08177    1.000
    H111     H        0.41170    0.17870    0.06030    1.000
    C168     C        0.49177    0.27565    0.03935    1.000
    H112     H        0.48190    0.26720    0.98880    1.000
    N15      N        0.07258    0.31686    0.07050    1.000
    O29      O        0.92325    0.03326    0.44139    1.000
    O30      O        0.03598    0.09341    0.42025    1.000
    C169     C        0.96783    0.06676    0.40095    1.000
    C170     C        0.93740    0.07856    0.32254    1.000
    C171     C        0.97867    0.13041    0.27757    1.000
    H113     H        0.02770    0.15500    0.29590    1.000
    C172     C        0.94905    0.14671    0.20610    1.000
    C173     C        0.87725    0.10913    0.17943    1.000
    H114     H        0.85610    0.12040    0.13090    1.000
    C174     C        0.83718    0.05584    0.22333    1.000
    H115     H        0.78910    0.02900    0.20440    1.000
    C175     C        0.86616    0.04073    0.29509    1.000
    H116     H        0.83760    0.00490    0.32520    1.000
    C176     C        0.10892    0.25444    0.11732    1.000
    H117     H        0.16310    0.24880    0.11990    1.000
    C177     C        0.07190    0.19815    0.16189    1.000
    H118     H        0.10040    0.15550    0.19440    1.000
    C178     C        0.99218    0.20423    0.15888    1.000
    C179     C        0.95442    0.26818    0.10968    1.000
    H119     H        0.90010    0.27380    0.10480    1.000
    C180     C        0.99605    0.32319    0.06815    1.000
    H120     H        0.96930    0.36790    0.03620    1.000
    N16      N        0.80877    0.69374    0.05365    1.000
    O31      O        0.66322    0.97031    0.42912    1.000
    O32      O        0.77492    0.91001    0.40652    1.000
    C181     C        0.70700    0.93789    0.38780    1.000
    C182     C        0.67616    0.93057    0.30835    1.000
    C183     C        0.71610    0.87830    0.26243    1.000
    H121     H        0.76320    0.84880    0.28090    1.000
    C184     C        0.68789    0.86870    0.18961    1.000
    C185     C        0.61879    0.91394    0.16333    1.000
    H122     H        0.59870    0.90810    0.11400    1.000
    C186     C        0.57949    0.96704    0.20854    1.000
    H123     H        0.53300    0.99800    0.18990    1.000
    C187     C        0.60772    0.97535    0.28117    1.000
    H124     H        0.58040    0.01150    0.31210    1.000
    C188     C        0.84657    0.75022    0.10464    1.000
    H125     H        0.90110    0.74990    0.11040    1.000
    C189     C        0.81065    0.80849    0.14893    1.000
    H126     H        0.84020    0.84630    0.18420    1.000
    C190     C        0.73011    0.81149    0.14147    1.000
    C191     C        0.69195    0.75562    0.08708    1.000
    H127     H        0.63750    0.75720    0.07820    1.000
    C192     C        0.73177    0.69814    0.04597    1.000
    H128     H        0.70340    0.65960    0.01030    1.000
