# CIF file generated by openbabel 3.1.0, see https://openbabel.org
data_I
_chemical_name_common 'image0'
_cell_length_a 14.604
_cell_length_b 15.309
_cell_length_c 22.87
_cell_angle_alpha 84.603
_cell_angle_beta 83.64
_cell_angle_gamma 86.655
_space_group_name_H-M_alt 'P 1'
_space_group_name_Hall 'P 1'
loop_
    _symmetry_equiv_pos_as_xyz
    x,y,z
loop_
    _atom_site_label
    _atom_site_type_symbol
    _atom_site_fract_x
    _atom_site_fract_y
    _atom_site_fract_z
    _atom_site_occupancy
    Sm1      Sm       0.70782    0.62002    0.25937    1.000
    O1       O        0.61040    0.50080    0.28080    1.000
    O2       O        0.79960    0.69630    0.32860    1.000
    O3       O        0.67360    0.63150    0.36690    1.000
    O4       O        0.56160    0.70310    0.26640    1.000
    O5       O        0.83310    0.70100    0.20950    1.000
    O6       O        0.66980    0.79340    0.27160    1.000
    O7       O        0.81670    0.51980    0.30030    1.000
    O8       O        0.73950    0.51950    0.17860    1.000
    O9       O        0.66770    0.64530    0.15440    1.000
    Sm2      Sm       0.68093    0.37056    0.21673    1.000
    C1       C        0.53140    0.46660    0.28560    1.000
    Sm3      Sm       0.82876    0.83360    0.27233    1.000
    C2       C        0.74660    0.66600    0.37390    1.000
    C3       C        0.58630    0.77450    0.28000    1.000
    C4       C        0.71310    0.57940    0.13910    1.000
    O10      O        0.51810    0.40320    0.25670    1.000
    O11      O        0.78650    0.32690    0.13460    1.000
    O12      O        0.81950    0.23430    0.20980    1.000
    O13      O        0.81670    0.39570    0.25700    1.000
    O14      O        0.66840    0.30000    0.31280    1.000
    O15      O        0.60140    0.24830    0.19100    1.000
    C5       C        0.45520    0.50130    0.32750    1.000
    O16      O        0.91330    0.96340    0.26060    1.000
    O17      O        0.75820    0.95200    0.21250    1.000
    O18      O        0.92940    0.80410    0.17950    1.000
    O19      O        0.80310    0.87100    0.36910    1.000
    C6       C        0.77370    0.67170    0.43430    1.000
    C7       C        0.51630    0.83830    0.30590    1.000
    C8       C        0.74230    0.56640    0.07600    1.000
    C9       C        0.46980    0.55820    0.36820    1.000
    C10      C        0.36590    0.47390    0.32600    1.000
    Sm4      Sm       0.79191    0.09765    0.26424    1.000
    C11      C        0.97580    0.01750    0.26180    1.000
    C12      C        0.79180    0.98980    0.16390    1.000
    C13      C        0.86500    0.68130    0.44190    1.000
    C14      C        0.70750    0.66840    0.48240    1.000
    C15      C        0.53880    0.91620    0.32250    1.000
    C16      C        0.42670    0.81560    0.31520    1.000
    C17      C        0.82160    0.51210    0.06230    1.000
    C18      C        0.69840    0.60730    0.03130    1.000
    C19      C        0.39790    0.58700    0.40670    1.000
    H1       H        0.52870    0.57730    0.36970    1.000
    C20      C        0.29520    0.50330    0.36480    1.000
    H2       H        0.35450    0.43570    0.29860    1.000
    O20      O        0.95610    0.08790    0.28640    1.000
    O21      O        0.82180    0.06690    0.16080    1.000
    O22      O        0.76720    0.19300    0.33830    1.000
    O23      O        0.64620    0.12520    0.24080    1.000
    O24      O        0.73750    0.99940    0.34220    1.000
    C21      C        0.06910    0.00310    0.23210    1.000
    C22      C        0.79420    0.94440    0.10990    1.000
    H3       H        0.90920    0.68450    0.40930    1.000
    C23      C        0.89100    0.68630    0.49780    1.000
    H4       H        0.64610    0.66150    0.47730    1.000
    C24      C        0.73240    0.67520    0.53780    1.000
    H5       H        0.59960    0.93280    0.31650    1.000
    C25      C        0.46910    0.97190    0.34910    1.000
    H6       H        0.41130    0.76130    0.30520    1.000
    C26      C        0.35850    0.87160    0.33920    1.000
    H7       H        0.85380    0.48450    0.09230    1.000
    C27      C        0.85130    0.50010    0.00370    1.000
    H8       H        0.64820    0.64580    0.04010    1.000
    C28      C        0.72560    0.59380    0.97350    1.000
    H9       H        0.40860    0.62590    0.43380    1.000
    C29      C        0.31210    0.55960    0.40580    1.000
    H10      H        0.23580    0.48540    0.36360    1.000
    C30      C        0.07890    0.95800    0.18110    1.000
    C31      C        0.14640    0.03620    0.25010    1.000
    C32      C        0.85350    0.96960    0.06080    1.000
    C33      C        0.74160    0.87410    0.10840    1.000
    H11      H        0.95250    0.69090    0.50340    1.000
    C34      C        0.82330    0.68430    0.54510    1.000
    H12      H        0.68790    0.67370    0.57020    1.000
    H13      H        0.48450    0.02450    0.36180    1.000
    C35      C        0.38090    0.94970    0.35610    1.000
    H14      H        0.29740    0.85600    0.34380    1.000
    C36      C        0.80360    0.53980    0.95980    1.000
    H15      H        0.90400    0.46490    0.99440    1.000
    H16      H        0.69230    0.62040    0.94360    1.000
    O25      O        0.23580    0.58690    0.44200    1.000
    H17      H        0.02850    0.93220    0.16950    1.000
    C37      C        0.16370    0.95220    0.14810    1.000
    H18      H        0.14090    0.06430    0.28470    1.000
    C38      C        0.23100    0.02840    0.21790    1.000
    H19      H        0.88950    0.01760    0.06120    1.000
    C39      C        0.86000    0.92380    0.01090    1.000
    H20      H        0.70130    0.85670    0.14130    1.000
    C40      C        0.74740    0.82820    0.05860    1.000
    O26      O        0.84280    0.69770    0.60170    1.000
    O27      O        0.31310    0.00790    0.37790    1.000
    O28      O        0.82750    0.53250    0.90100    1.000
    C41      C        0.24920    0.62380    0.49360    1.000
    C42      C        0.24030    0.98840    0.16540    1.000
    H21      H        0.16970    0.92350    0.11370    1.000
    H22      H        0.28240    0.05000    0.23130    1.000
    C43      C        0.80790    0.85350    0.01020    1.000
    H23      H        0.90000    0.94130    0.97790    1.000
    H24      H        0.71080    0.78070    0.05790    1.000
    C44      C        0.92200    0.66180    0.62280    1.000
    C45      C        0.29900    0.01620    0.43710    1.000
    C46      C        0.89410    0.46820    0.88440    1.000
    C47      C        0.29800    0.57810    0.53510    1.000
    C48      C        0.20800    0.70370    0.50220    1.000
    O29      O        0.31960    0.98170    0.12850    1.000
    O30      O        0.80910    0.80580    0.96170    1.000
    C49      C        0.96060    0.58020    0.60990    1.000
    C50      C        0.95750    0.70850    0.66200    1.000
    C51      C        0.24450    0.08770    0.45350    1.000
    C52      C        0.33090    0.95480    0.48020    1.000
    C53      C        0.97300    0.49290    0.85290    1.000
    C54      C        0.87750    0.38090    0.89690    1.000
    H25      H        0.32510    0.52310    0.52820    1.000
    C55      C        0.30670    0.61350    0.58660    1.000
    C56      C        0.21860    0.74020    0.55520    1.000
    H26      H        0.17380    0.73360    0.47400    1.000
    C57      C        0.39200    0.02800    0.14290    1.000
    C58      C        0.89740    0.78570    0.93330    1.000
    C59      C        0.03660    0.54630    0.63720    1.000
    H27      H        0.93570    0.54840    0.58330    1.000
    C60      C        0.03300    0.67470    0.68860    1.000
    H28      H        0.93070    0.76310    0.67060    1.000
    C61      C        0.22690    0.10090    0.51300    1.000
    H29      H        0.21970    0.12680    0.42510    1.000
    C62      C        0.31120    0.96810    0.53910    1.000
    H30      H        0.36540    0.90490    0.46910    1.000
    C63      C        0.03880    0.43000    0.83270    1.000
    H31      H        0.98370    0.55220    0.84450    1.000
    C64      C        0.94210    0.31660    0.87610    1.000
    H32      H        0.82310    0.36430    0.91930    1.000
    H33      H        0.33940    0.58190    0.61500    1.000
    C65      C        0.26790    0.69530    0.59710    1.000
    H34      H        0.19180    0.79550    0.56190    1.000
    C66      C        0.46100    0.98340    0.16860    1.000
    C67      C        0.39270    0.11590    0.12950    1.000
    C68      C        0.90960    0.80310    0.87420    1.000
    C69      C        0.96440    0.74620    0.96350    1.000
    C70      C        0.07230    0.59250    0.67780    1.000
    H35      H        0.06390    0.49210    0.62810    1.000
    H36      H        0.05830    0.70760    0.71450    1.000
    C71      C        0.25890    0.03980    0.55430    1.000
    H37      H        0.19350    0.15110    0.52460    1.000
    H38      H        0.33370    0.92830    0.56800    1.000
    H39      H        0.09290    0.44790    0.81050    1.000
    C72      C        0.02520    0.34260    0.84480    1.000
    H40      H        0.92980    0.25740    0.88310    1.000
    C73      C        0.27770    0.73860    0.65250    1.000
    H41      H        0.46220    0.92240    0.17350    1.000
    C74      C        0.53090    0.02800    0.18800    1.000
    C75      C        0.45990    0.16330    0.14810    1.000
    H42      H        0.34790    0.14440    0.10780    1.000
    C76      C        0.99490    0.78520    0.84310    1.000
    H43      H        0.86080    0.82710    0.85410    1.000
    C77      C        0.04960    0.72790    0.93330    1.000
    H44      H        0.95370    0.73150    0.00400    1.000
    C78      C        0.15090    0.55550    0.70870    1.000
    C79      C        0.23740    0.05750    0.61800    1.000
    C80      C        0.09150    0.27510    0.81780    1.000
    H45      H        0.57790    0.99800    0.20720    1.000
    C81      C        0.52780    0.11760    0.17770    1.000
    H46      H        0.45940    0.22410    0.14090    1.000
    C82      C        0.06440    0.74840    0.87310    1.000
    H47      H        0.00400    0.79820    0.80240    1.000
    H48      H        0.09720    0.70160    0.95360    1.000
    C83      C        0.59590    0.16800    0.20440    1.000
    C84      C        0.15880    0.72910    0.84210    1.000
    Sm5      Sm       0.29218    0.37998    0.74063    1.000
    O31      O        0.38960    0.49920    0.71920    1.000
    O32      O        0.20040    0.30370    0.67140    1.000
    O33      O        0.32640    0.36850    0.63310    1.000
    O34      O        0.43840    0.29690    0.73360    1.000
    O35      O        0.16690    0.29900    0.79050    1.000
    O36      O        0.33020    0.20660    0.72840    1.000
    O37      O        0.18330    0.48020    0.69970    1.000
    O38      O        0.26050    0.48050    0.82140    1.000
    O39      O        0.33230    0.35470    0.84560    1.000
    Sm6      Sm       0.31907    0.62944    0.78327    1.000
    C85      C        0.46860    0.53340    0.71440    1.000
    Sm7      Sm       0.17124    0.16640    0.72767    1.000
    C86      C        0.25340    0.33400    0.62610    1.000
    C87      C        0.41370    0.22550    0.72000    1.000
    C88      C        0.28690    0.42060    0.86090    1.000
    O40      O        0.48190    0.59680    0.74330    1.000
    O41      O        0.21350    0.67310    0.86540    1.000
    O42      O        0.18050    0.76570    0.79020    1.000
    O43      O        0.18330    0.60430    0.74300    1.000
    O44      O        0.33160    0.70000    0.68720    1.000
    O45      O        0.39860    0.75170    0.80900    1.000
    C89      C        0.54480    0.49870    0.67250    1.000
    O46      O        0.08670    0.03660    0.73940    1.000
    O47      O        0.24180    0.04800    0.78750    1.000
    O48      O        0.07060    0.19590    0.82050    1.000
    O49      O        0.19690    0.12900    0.63090    1.000
    C90      C        0.22630    0.32830    0.56570    1.000
    C91      C        0.48370    0.16170    0.69410    1.000
    C92      C        0.25770    0.43360    0.92400    1.000
    C93      C        0.53020    0.44180    0.63180    1.000
    C94      C        0.63410    0.52610    0.67400    1.000
    Sm8      Sm       0.20809    0.90235    0.73576    1.000
    C95      C        0.02420    0.98250    0.73820    1.000
    C96      C        0.20820    0.01020    0.83610    1.000
    C97      C        0.13500    0.31870    0.55810    1.000
    C98      C        0.29250    0.33160    0.51760    1.000
    C99      C        0.46120    0.08380    0.67750    1.000
    C100     C        0.57330    0.18440    0.68480    1.000
    C101     C        0.17840    0.48790    0.93770    1.000
    C102     C        0.30160    0.39270    0.96870    1.000
    C103     C        0.60210    0.41300    0.59330    1.000
    H49      H        0.47130    0.42270    0.63030    1.000
    C104     C        0.70480    0.49670    0.63520    1.000
    H50      H        0.64550    0.56430    0.70140    1.000
    O50      O        0.04390    0.91210    0.71360    1.000
    O51      O        0.17820    0.93310    0.83920    1.000
    O52      O        0.23280    0.80700    0.66170    1.000
    O53      O        0.35380    0.87480    0.75920    1.000
    O54      O        0.26250    0.00060    0.65780    1.000
    C105     C        0.93090    0.99690    0.76790    1.000
    C106     C        0.20580    0.05560    0.89010    1.000
    H51      H        0.09080    0.31550    0.59070    1.000
    C107     C        0.10900    0.31370    0.50220    1.000
    H52      H        0.35390    0.33850    0.52270    1.000
    C108     C        0.26760    0.32480    0.46220    1.000
    H53      H        0.40040    0.06720    0.68350    1.000
    C109     C        0.53090    0.02810    0.65090    1.000
    H54      H        0.58870    0.23870    0.69480    1.000
    C110     C        0.64150    0.12840    0.66080    1.000
    H55      H        0.14620    0.51550    0.90770    1.000
    C111     C        0.14870    0.49990    0.99630    1.000
    H56      H        0.35180    0.35420    0.95990    1.000
    C112     C        0.27440    0.40620    0.02650    1.000
    H57      H        0.59140    0.37410    0.56620    1.000
    C113     C        0.68790    0.44040    0.59420    1.000
    H58      H        0.76420    0.51460    0.63640    1.000
    C114     C        0.92110    0.04200    0.81890    1.000
    C115     C        0.85360    0.96380    0.74990    1.000
    C116     C        0.14650    0.03040    0.93920    1.000
    C117     C        0.25840    0.12590    0.89160    1.000
    H59      H        0.04750    0.30910    0.49660    1.000
    C118     C        0.17670    0.31570    0.45490    1.000
    H60      H        0.31210    0.32630    0.42980    1.000
    H61      H        0.51550    0.97550    0.63820    1.000
    C119     C        0.61910    0.05030    0.64390    1.000
    H62      H        0.70260    0.14400    0.65620    1.000
    C120     C        0.19640    0.46020    0.04020    1.000
    H63      H        0.09600    0.53510    0.00560    1.000
    H64      H        0.30770    0.37960    0.05640    1.000
    O55      O        0.76420    0.41310    0.55800    1.000
    H65      H        0.97150    0.06780    0.83050    1.000
    C121     C        0.83630    0.04780    0.85190    1.000
    H66      H        0.85910    0.93570    0.71530    1.000
    C122     C        0.76900    0.97160    0.78210    1.000
    H67      H        0.11050    0.98240    0.93880    1.000
    C123     C        0.14000    0.07620    0.98910    1.000
    H68      H        0.29870    0.14330    0.85870    1.000
    C124     C        0.25260    0.17180    0.94140    1.000
    O56      O        0.15720    0.30230    0.39830    1.000
    O57      O        0.68690    0.99210    0.62210    1.000
    O58      O        0.17250    0.46750    0.09900    1.000
    C125     C        0.75080    0.37620    0.50640    1.000
    C126     C        0.75970    0.01160    0.83460    1.000
    H69      H        0.83030    0.07650    0.88630    1.000
    H70      H        0.71760    0.95000    0.76870    1.000
    C127     C        0.19210    0.14650    0.98980    1.000
    H71      H        0.10000    0.05870    0.02210    1.000
    H72      H        0.28920    0.21930    0.94210    1.000
    C128     C        0.07800    0.33820    0.37720    1.000
    C129     C        0.70100    0.98380    0.56290    1.000
    C130     C        0.10590    0.53180    0.11560    1.000
    C131     C        0.70200    0.42190    0.46490    1.000
    C132     C        0.79200    0.29630    0.49780    1.000
    O59      O        0.68040    0.01830    0.87150    1.000
    O60      O        0.19090    0.19420    0.03830    1.000
    C133     C        0.03940    0.41980    0.39010    1.000
    C134     C        0.04250    0.29150    0.33800    1.000
    C135     C        0.75550    0.91230    0.54650    1.000
    C136     C        0.66910    0.04520    0.51980    1.000
    C137     C        0.02700    0.50710    0.14710    1.000
    C138     C        0.12250    0.61910    0.10310    1.000
    H73      H        0.67490    0.47690    0.47180    1.000
    C139     C        0.69330    0.38650    0.41340    1.000
    C140     C        0.78140    0.25980    0.44480    1.000
    H74      H        0.82620    0.26640    0.52600    1.000
    C141     C        0.60800    0.97200    0.85710    1.000
    C142     C        0.10260    0.21430    0.06670    1.000
    C143     C        0.96340    0.45370    0.36280    1.000
    H75      H        0.06430    0.45160    0.41670    1.000
    C144     C        0.96700    0.32530    0.31140    1.000
    H76      H        0.06930    0.23690    0.32940    1.000
    C145     C        0.77310    0.89910    0.48700    1.000
    H77      H        0.78030    0.87320    0.57490    1.000
    C146     C        0.68880    0.03190    0.46090    1.000
    H78      H        0.63460    0.09510    0.53090    1.000
    C147     C        0.96120    0.57000    0.16730    1.000
    H79      H        0.01630    0.44780    0.15550    1.000
    C148     C        0.05790    0.68340    0.12390    1.000
    H80      H        0.17690    0.63570    0.08070    1.000
    H81      H        0.66060    0.41810    0.38500    1.000
    C149     C        0.73210    0.30470    0.40290    1.000
    H82      H        0.80820    0.20450    0.43810    1.000
    C150     C        0.53900    0.01660    0.83140    1.000
    C151     C        0.60730    0.88410    0.87050    1.000
    C152     C        0.09040    0.19690    0.12580    1.000
    C153     C        0.03560    0.25380    0.03650    1.000
    C154     C        0.92770    0.40750    0.32220    1.000
    H83      H        0.93610    0.50790    0.37190    1.000
    H84      H        0.94170    0.29240    0.28550    1.000
    C155     C        0.74110    0.96020    0.44570    1.000
    H85      H        0.80650    0.84890    0.47540    1.000
    H86      H        0.66630    0.07170    0.43200    1.000
    H87      H        0.90710    0.55210    0.18950    1.000
    C156     C        0.97480    0.65740    0.15520    1.000
    H88      H        0.07020    0.74260    0.11690    1.000
    C157     C        0.72230    0.26140    0.34750    1.000
    H89      H        0.53780    0.07760    0.82650    1.000
    C158     C        0.46910    0.97200    0.81200    1.000
    C159     C        0.54010    0.83670    0.85190    1.000
    H90      H        0.65210    0.85560    0.89220    1.000
    C160     C        0.00510    0.21480    0.15690    1.000
    H91      H        0.13920    0.17290    0.14590    1.000
    C161     C        0.95040    0.27210    0.06670    1.000
    H92      H        0.04630    0.26850    0.99600    1.000
    C162     C        0.84910    0.44450    0.29130    1.000
    C163     C        0.76260    0.94250    0.38200    1.000
    C164     C        0.90850    0.72490    0.18220    1.000
    H93      H        0.42210    0.00200    0.79280    1.000
    C165     C        0.47220    0.88240    0.82230    1.000
    H94      H        0.54060    0.77590    0.85910    1.000
    C166     C        0.93560    0.25160    0.12690    1.000
    H95      H        0.99600    0.20180    0.19760    1.000
    H96      H        0.90280    0.29840    0.04640    1.000
    C167     C        0.40410    0.83200    0.79560    1.000
    C168     C        0.84120    0.27090    0.15790    1.000
