# CIF file generated by openbabel 3.1.0, see https://openbabel.org
data_I
_chemical_name_common 'image0'
_cell_length_a 8.0542
_cell_length_b 18.78
_cell_length_c 19.289
_cell_angle_alpha 90
_cell_angle_beta 95.641
_cell_angle_gamma 90
_space_group_name_H-M_alt 'P 1'
_space_group_name_Hall 'P 1'
loop_
    _symmetry_equiv_pos_as_xyz
    x,y,z
loop_
    _atom_site_label
    _atom_site_type_symbol
    _atom_site_fract_x
    _atom_site_fract_y
    _atom_site_fract_z
    _atom_site_occupancy
    C1       C        0.70700    0.37730    0.59250    1.000
    C2       C        0.84560    0.37810    0.64910    1.000
    C3       C        0.99960    0.35410    0.63750    1.000
    H1       H        0.01660    0.33530    0.59360    1.000
    C4       C        0.13280    0.35650    0.68930    1.000
    H2       H        0.23870    0.33970    0.68060    1.000
    C5       C        0.10730    0.38340    0.75220    1.000
    C6       C        0.95230    0.40770    0.76640    1.000
    H3       H        0.93620    0.42590    0.81060    1.000
    C7       C        0.82230    0.40480    0.71490    1.000
    H4       H        0.71620    0.42100    0.72400    1.000
    C8       C        0.15220    0.29060    0.88250    1.000
    H5       H        0.18680    0.24690    0.86120    1.000
    H6       H        0.03860    0.30190    0.86450    1.000
    H7       H        0.15790    0.28440    0.93260    1.000
    C9       C        0.26390    0.34920    0.86600    1.000
    C10      C        0.37770    0.43320    0.81040    1.000
    C11      C        0.40120    0.48570    0.75290    1.000
    H8       H        0.49330    0.51730    0.76750    1.000
    H9       H        0.30000    0.51340    0.74290    1.000
    H10      H        0.42520    0.46010    0.71140    1.000
    C12      C        0.75050    0.76450    0.50880    1.000
    C13      C        0.88750    0.71560    0.49440    1.000
    C14      C        0.85410    0.65300    0.45730    1.000
    H11      H        0.74390    0.64170    0.44020    1.000
    C15      C        0.97880    0.60870    0.44560    1.000
    H12      H        0.95470    0.56650    0.42040    1.000
    C16      C        0.13880    0.62340    0.46950    1.000
    C17      C        0.17860    0.68410    0.50570    1.000
    H13      H        0.28980    0.69430    0.52200    1.000
    C18      C        0.05100    0.73060    0.51790    1.000
    H14      H        0.07630    0.77290    0.54260    1.000
    C19      C        0.19190    0.47870    0.53890    1.000
    H15      H        0.08970    0.45840    0.51640    1.000
    H16      H        0.16490    0.51660    0.57010    1.000
    H17      H        0.25510    0.44200    0.56530    1.000
    C20      C        0.29270    0.50790    0.48540    1.000
    C21      C        0.39060    0.58070    0.40960    1.000
    C22      C        0.40750    0.64430    0.36730    1.000
    H18      H        0.48470    0.63470    0.33280    1.000
    H19      H        0.44980    0.68320    0.39700    1.000
    H20      H        0.29950    0.65710    0.34390    1.000
    C23      C        0.26590    0.32080    0.11080    1.000
    C24      C        0.13290    0.31470    0.16060    1.000
    C25      C        0.17660    0.29960    0.22940    1.000
    H21      H        0.28930    0.29250    0.24550    1.000
    C26      C        0.05380    0.29470    0.27570    1.000
    H22      H        0.08280    0.28380    0.32290    1.000
    C27      C        0.88940    0.30610    0.25080    1.000
    C28      C        0.84680    0.32200    0.18050    1.000
    H23      H        0.73480    0.32980    0.16370    1.000
    C29      C        0.96830    0.32590    0.13660    1.000
    H24      H        0.93980    0.33650    0.08930    1.000
    C30      C        0.83250    0.40970    0.36730    1.000
    H25      H        0.78110    0.43670    0.40230    1.000
    H26      H        0.84060    0.43910    0.32650    1.000
    H27      H        0.94330    0.39470    0.38600    1.000
    C31      C        0.73090    0.34700    0.34800    1.000
    C32      C        0.63850    0.24990    0.29560    1.000
    C33      C        0.62450    0.18960    0.24620    1.000
    H28      H        0.51720    0.16640    0.24790    1.000
    H29      H        0.71310    0.15560    0.25890    1.000
    H30      H        0.63390    0.20700    0.19940    1.000
    C34      C        0.64920    0.20970    0.98960    1.000
    C35      C        0.78490    0.15660    0.97620    1.000
    C36      C        0.74620    0.08880    0.95350    1.000
    H31      H        0.63410    0.07430    0.94720    1.000
    C37      C        0.87050    0.04210    0.94000    1.000
    H32      H        0.84360    0.99620    0.92290    1.000
    C38      C        0.03300    0.06300    0.95150    1.000
    C39      C        0.07620    0.13040    0.97770    1.000
    H33      H        0.18840    0.14390    0.98740    1.000
    C40      C        0.95020    0.17600    0.98880    1.000
    H34      H        0.97660    0.22200    0.00540    1.000
    C41      C        0.14360    0.93030    0.03660    1.000
    H35      H        0.19060    0.88410    0.04970    1.000
    H36      H        0.02450    0.92560    0.02410    1.000
    H37      H        0.16330    0.96300    0.07550    1.000
    C42      C        0.22470    0.95870    0.97550    1.000
    C43      C        0.28020    0.02370    0.88880    1.000
    C44      C        0.26410    0.08260    0.83660    1.000
    H38      H        0.30560    0.12650    0.85840    1.000
    H39      H        0.14770    0.08850    0.81920    1.000
    H40      H        0.32850    0.07110    0.79810    1.000
    N1       N        0.39690    0.37100    0.90390    1.000
    N2       N        0.46920    0.42500    0.86740    1.000
    N3       N        0.24570    0.38780    0.80660    1.000
    N4       N        0.41580    0.47690    0.45850    1.000
    N5       N        0.47840    0.52290    0.41050    1.000
    N6       N        0.27080    0.57370    0.45590    1.000
    N7       N        0.59820    0.32460    0.37640    1.000
    N8       N        0.53930    0.26320    0.34350    1.000
    N9       N        0.75870    0.30060    0.29710    1.000
    N10      N        0.35750    0.93360    0.95110    1.000
    N11      N        0.39260    0.97460    0.89560    1.000
    N12      N        0.16730    0.01540    0.93720    1.000
    O1       O        0.74460    0.36460    0.53220    1.000
    O2       O        0.56080    0.39030    0.60460    1.000
    O3       O        0.78780    0.82440    0.53720    1.000
    O4       O        0.60420    0.74740    0.49170    1.000
    O5       O        0.69940    0.27250    0.00020    1.000
    O6       O        0.50160    0.19150    0.98770    1.000
    O7       O        0.22160    0.33660    0.04850    1.000
    O8       O        0.41640    0.31150    0.13150    1.000
    Cd1      Cd       0.49037    0.36127    0.47449    1.000
    Cd2      Cd       0.48326    0.33853    0.01528    1.000
    C45      C        0.29300    0.87730    0.40750    1.000
    C46      C        0.15440    0.87810    0.35090    1.000
    C47      C        0.00040    0.85410    0.36250    1.000
    H41      H        0.98340    0.83530    0.40640    1.000
    C48      C        0.86720    0.85650    0.31070    1.000
    H42      H        0.76130    0.83970    0.31940    1.000
    C49      C        0.89270    0.88340    0.24780    1.000
    C50      C        0.04770    0.90770    0.23360    1.000
    H43      H        0.06380    0.92590    0.18940    1.000
    C51      C        0.17770    0.90480    0.28510    1.000
    H44      H        0.28380    0.92100    0.27600    1.000
    C52      C        0.84780    0.79060    0.11750    1.000
    H45      H        0.81320    0.74690    0.13880    1.000
    H46      H        0.96140    0.80190    0.13550    1.000
    H47      H        0.84210    0.78440    0.06740    1.000
    C53      C        0.73610    0.84920    0.13400    1.000
    C54      C        0.62230    0.93320    0.18960    1.000
    C55      C        0.59880    0.98570    0.24710    1.000
    H48      H        0.50670    0.01730    0.23250    1.000
    H49      H        0.70000    0.01340    0.25710    1.000
    H50      H        0.57480    0.96010    0.28860    1.000
    C56      C        0.24950    0.26450    0.49120    1.000
    C57      C        0.11250    0.21560    0.50560    1.000
    C58      C        0.14590    0.15300    0.54270    1.000
    H51      H        0.25610    0.14170    0.55980    1.000
    C59      C        0.02120    0.10870    0.55440    1.000
    H52      H        0.04530    0.06650    0.57960    1.000
    C60      C        0.86120    0.12340    0.53050    1.000
    C61      C        0.82140    0.18410    0.49430    1.000
    H53      H        0.71020    0.19430    0.47800    1.000
    C62      C        0.94900    0.23060    0.48210    1.000
    H54      H        0.92370    0.27290    0.45740    1.000
    C63      C        0.80810    0.97870    0.46110    1.000
    H55      H        0.91030    0.95840    0.48360    1.000
    H56      H        0.83510    0.01660    0.42990    1.000
    H57      H        0.74490    0.94200    0.43470    1.000
    C64      C        0.70730    0.00790    0.51460    1.000
    C65      C        0.60940    0.08070    0.59040    1.000
    C66      C        0.59250    0.14430    0.63270    1.000
    H58      H        0.51530    0.13470    0.66720    1.000
    H59      H        0.55020    0.18320    0.60300    1.000
    H60      H        0.70050    0.15710    0.65610    1.000
    C67      C        0.73410    0.82080    0.88920    1.000
    C68      C        0.86710    0.81470    0.83940    1.000
    C69      C        0.82340    0.79960    0.77060    1.000
    H61      H        0.71070    0.79250    0.75450    1.000
    C70      C        0.94620    0.79470    0.72430    1.000
    H62      H        0.91720    0.78380    0.67710    1.000
    C71      C        0.11060    0.80610    0.74920    1.000
    C72      C        0.15320    0.82200    0.81950    1.000
    H63      H        0.26520    0.82980    0.83630    1.000
    C73      C        0.03170    0.82590    0.86340    1.000
    H64      H        0.06020    0.83650    0.91070    1.000
    C74      C        0.16750    0.90970    0.63270    1.000
    H65      H        0.21890    0.93670    0.59770    1.000
    H66      H        0.15940    0.93910    0.67350    1.000
    H67      H        0.05670    0.89470    0.61400    1.000
    C75      C        0.26910    0.84700    0.65200    1.000
    C76      C        0.36150    0.74990    0.70440    1.000
    C77      C        0.37550    0.68960    0.75380    1.000
    H68      H        0.48280    0.66640    0.75210    1.000
    H69      H        0.28690    0.65560    0.74110    1.000
    H70      H        0.36610    0.70700    0.80060    1.000
    C78      C        0.35080    0.70970    0.01040    1.000
    C79      C        0.21510    0.65660    0.02380    1.000
    C80      C        0.25380    0.58880    0.04650    1.000
    H71      H        0.36590    0.57430    0.05280    1.000
    C81      C        0.12950    0.54210    0.06000    1.000
    H72      H        0.15640    0.49620    0.07710    1.000
    C82      C        0.96700    0.56300    0.04850    1.000
    C83      C        0.92380    0.63040    0.02230    1.000
    H73      H        0.81160    0.64390    0.01260    1.000
    C84      C        0.04980    0.67600    0.01120    1.000
    H74      H        0.02340    0.72200    0.99460    1.000
    C85      C        0.85640    0.43030    0.96340    1.000
    H75      H        0.80940    0.38410    0.95030    1.000
    H76      H        0.97550    0.42560    0.97590    1.000
    H77      H        0.83670    0.46300    0.92450    1.000
    C86      C        0.77530    0.45870    0.02450    1.000
    C87      C        0.71980    0.52370    0.11120    1.000
    C88      C        0.73590    0.58260    0.16340    1.000
    H78      H        0.69440    0.62650    0.14160    1.000
    H79      H        0.85230    0.58850    0.18080    1.000
    H80      H        0.67150    0.57110    0.20190    1.000
    N13      N        0.60310    0.87100    0.09610    1.000
    N14      N        0.53080    0.92500    0.13260    1.000
    N15      N        0.75430    0.88780    0.19340    1.000
    N16      N        0.58420    0.97690    0.54150    1.000
    N17      N        0.52160    0.02290    0.58950    1.000
    N18      N        0.72920    0.07370    0.54410    1.000
    N19      N        0.40180    0.82460    0.62360    1.000
    N20      N        0.46070    0.76320    0.65650    1.000
    N21      N        0.24130    0.80060    0.70290    1.000
    N22      N        0.64250    0.43360    0.04890    1.000
    N23      N        0.60740    0.47460    0.10440    1.000
    N24      N        0.83270    0.51540    0.06280    1.000
    O9       O        0.25540    0.86460    0.46780    1.000
    O10      O        0.43920    0.89030    0.39540    1.000
    O11      O        0.21220    0.32440    0.46280    1.000
    O12      O        0.39580    0.24740    0.50830    1.000
    O13      O        0.30060    0.77250    0.99980    1.000
    O14      O        0.49840    0.69150    0.01230    1.000
    O15      O        0.77840    0.83660    0.95150    1.000
    O16      O        0.58360    0.81150    0.86850    1.000
    Cd3      Cd       0.50963    0.86127    0.52551    1.000
    Cd4      Cd       0.51674    0.83853    0.98472    1.000
