# CIF file generated by openbabel 3.1.0, see https://openbabel.org
data_I
_chemical_name_common 'image0'
_cell_length_a 49.033
_cell_length_b 8.9877
_cell_length_c 18.4357
_cell_angle_alpha 90
_cell_angle_beta 90
_cell_angle_gamma 90
_space_group_name_H-M_alt 'P 1'
_space_group_name_Hall 'P 1'
loop_
    _symmetry_equiv_pos_as_xyz
    x,y,z
loop_
    _atom_site_label
    _atom_site_type_symbol
    _atom_site_fract_x
    _atom_site_fract_y
    _atom_site_fract_z
    _atom_site_occupancy
    O1       O        0.09065    0.00090    0.19300    1.000
    N1       N        0.03243    0.36960    0.06390    1.000
    N2       N        0.09504    0.20430    0.26230    1.000
    H1       H        0.09120    0.29980    0.26460    1.000
    C1       C        0.05460    0.42770    0.08790    1.000
    H2       H        0.05950    0.52400    0.07130    1.000
    C2       C        0.07210    0.35400    0.13820    1.000
    H3       H        0.08710    0.40620    0.15850    1.000
    C3       C        0.06746    0.21560    0.15670    1.000
    C4       C        0.04750    0.13630    0.11920    1.000
    H4       H        0.04560    0.03170    0.12450    1.000
    C5       C        0.03000    0.22020    0.07220    1.000
    H5       H        0.01620    0.16940    0.04590    1.000
    C6       C        0.08536    0.13150    0.20500    1.000
    C7       C        0.11087    0.14540    0.32040    1.000
    C8       C        0.10445    0.19470    0.39030    1.000
    H6       H        0.08960    0.26090    0.39740    1.000
    C9       C        0.11941    0.14830    0.44820    1.000
    H7       H        0.11520    0.18390    0.49540    1.000
    C10      C        0.14080    0.04940    0.43870    1.000
    C11      C        0.14696    0.99860    0.36910    1.000
    H8       H        0.16140    0.92970    0.36200    1.000
    C12      C        0.13197    0.04890    0.31010    1.000
    H9       H        0.13640    0.01610    0.26250    1.000
    C13      C        0.19908    0.10480    0.46050    1.000
    H10      H        0.18960    0.17780    0.43320    1.000
    C14      C        0.22707    0.10440    0.46050    1.000
    H11      H        0.23670    0.17670    0.43300    1.000
    O2       O        0.28001    0.02190    0.39540    1.000
    N3       N        0.27049    0.98900    0.51410    1.000
    C15      C        0.28760    0.00580    0.45870    1.000
    C16      C        0.36210    0.02000    0.43320    1.000
    C17      C        0.33590    0.02040    0.42000    1.000
    C18      C        0.31770    0.00380    0.47630    1.000
    C19      C        0.32840    0.98590    0.54480    1.000
    C20      C        0.35780    0.98900    0.55230    1.000
    O3       O        0.26188    0.47070    0.28950    1.000
    C21      C        0.27450    0.33690    0.31020    1.000
    H12      H        0.26050    0.25910    0.31810    1.000
    H13      H        0.28460    0.35150    0.35610    1.000
    C22      C        0.29360    0.29000    0.25200    1.000
    H14      H        0.30240    0.19600    0.26600    1.000
    H15      H        0.30750    0.36640    0.24490    1.000
    H16      H        0.28340    0.27510    0.20680    1.000
    C23      C        0.03150    0.39820    0.14070    1.000
    H17      H        0.01870    0.46720    0.15960    1.000
    C24      C        0.04920    0.32550    0.18680    1.000
    H18      H        0.04940    0.34730    0.23720    1.000
    C25      C        0.06640    0.19500    0.08340    1.000
    H19      H        0.07800    0.12400    0.06110    1.000
    C26      C        0.04860    0.27580    0.04190    1.000
    H20      H        0.04880    0.25750    0.99110    1.000
    H21      H        0.27660    0.97160    0.55810    1.000
    H22      H        0.37410    0.03160    0.39240    1.000
    H23      H        0.32870    0.03560    0.37210    1.000
    H24      H        0.31670    0.97200    0.58610    1.000
    H25      H        0.36550    0.98000    0.60000    1.000
    O4       O        0.27998    0.11210    0.33620    1.000
    H26      H        0.26520    0.08890    0.31510    1.000
    C27      C        0.28490    0.26140    0.32340    1.000
    H27      H        0.29350    0.30600    0.36700    1.000
    H28      H        0.26740    0.31300    0.31480    1.000
    C28      C        0.30320    0.28400    0.25940    1.000
    H29      H        0.30670    0.39070    0.25290    1.000
    H30      H        0.29450    0.24410    0.21580    1.000
    H31      H        0.32060    0.23250    0.26760    1.000
    O5       O        0.40935    0.99910    0.69300    1.000
    N4       N        0.46757    0.63040    0.56390    1.000
    N5       N        0.40496    0.79570    0.76230    1.000
    H32      H        0.40880    0.70020    0.76460    1.000
    C29      C        0.44540    0.57230    0.58790    1.000
    H33      H        0.44050    0.47600    0.57130    1.000
    C30      C        0.42790    0.64600    0.63820    1.000
    H34      H        0.41290    0.59380    0.65850    1.000
    C31      C        0.43254    0.78440    0.65670    1.000
    C32      C        0.45250    0.86370    0.61920    1.000
    H35      H        0.45440    0.96830    0.62450    1.000
    C33      C        0.47000    0.77980    0.57220    1.000
    H36      H        0.48380    0.83060    0.54590    1.000
    C34      C        0.41464    0.86850    0.70500    1.000
    C35      C        0.38913    0.85460    0.82040    1.000
    C36      C        0.39555    0.80530    0.89030    1.000
    H37      H        0.41040    0.73910    0.89740    1.000
    C37      C        0.38059    0.85170    0.94820    1.000
    H38      H        0.38480    0.81610    0.99540    1.000
    C38      C        0.35920    0.95060    0.93870    1.000
    C39      C        0.35304    0.00140    0.86910    1.000
    H39      H        0.33860    0.07030    0.86200    1.000
    C40      C        0.36803    0.95110    0.81010    1.000
    H40      H        0.36360    0.98390    0.76250    1.000
    C41      C        0.30092    0.89520    0.96050    1.000
    H41      H        0.31040    0.82220    0.93320    1.000
    C42      C        0.27293    0.89560    0.96050    1.000
    H42      H        0.26330    0.82330    0.93300    1.000
    O6       O        0.21999    0.97810    0.89540    1.000
    N6       N        0.22951    0.01100    0.01410    1.000
    C43      C        0.21240    0.99420    0.95870    1.000
    C44      C        0.13790    0.98000    0.93320    1.000
    C45      C        0.16410    0.97960    0.92000    1.000
    C46      C        0.18230    0.99620    0.97630    1.000
    C47      C        0.17160    0.01410    0.04480    1.000
    C48      C        0.14220    0.01100    0.05230    1.000
    O7       O        0.23812    0.52930    0.78950    1.000
    C49      C        0.22550    0.66310    0.81020    1.000
    H43      H        0.23950    0.74090    0.81810    1.000
    H44      H        0.21540    0.64850    0.85610    1.000
    C50      C        0.20640    0.71000    0.75200    1.000
    H45      H        0.19760    0.80400    0.76600    1.000
    H46      H        0.19250    0.63360    0.74490    1.000
    H47      H        0.21660    0.72490    0.70680    1.000
    C51      C        0.46850    0.60180    0.64070    1.000
    H48      H        0.48130    0.53280    0.65960    1.000
    C52      C        0.45080    0.67450    0.68680    1.000
    H49      H        0.45060    0.65270    0.73720    1.000
    C53      C        0.43360    0.80500    0.58340    1.000
    H50      H        0.42200    0.87600    0.56110    1.000
    C54      C        0.45140    0.72420    0.54190    1.000
    H51      H        0.45120    0.74250    0.49110    1.000
    H52      H        0.22340    0.02840    0.05810    1.000
    H53      H        0.12590    0.96840    0.89240    1.000
    H54      H        0.17130    0.96440    0.87210    1.000
    H55      H        0.18330    0.02800    0.08610    1.000
    H56      H        0.13450    0.02000    0.10000    1.000
    O8       O        0.22002    0.88790    0.83620    1.000
    H57      H        0.23480    0.91110    0.81510    1.000
    C55      C        0.21510    0.73860    0.82340    1.000
    H58      H        0.20650    0.69400    0.86700    1.000
    H59      H        0.23260    0.68700    0.81480    1.000
    C56      C        0.19680    0.71600    0.75940    1.000
    H60      H        0.19330    0.60930    0.75290    1.000
    H61      H        0.20550    0.75590    0.71580    1.000
    H62      H        0.17940    0.76750    0.76760    1.000
    O9       O        0.40935    0.00090    0.30700    1.000
    N7       N        0.46757    0.36960    0.43610    1.000
    N8       N        0.40496    0.20430    0.23770    1.000
    H63      H        0.40880    0.29980    0.23540    1.000
    C57      C        0.44540    0.42770    0.41210    1.000
    H64      H        0.44050    0.52400    0.42870    1.000
    C58      C        0.42790    0.35400    0.36180    1.000
    H65      H        0.41290    0.40620    0.34150    1.000
    C59      C        0.43254    0.21560    0.34330    1.000
    C60      C        0.45250    0.13630    0.38080    1.000
    H66      H        0.45440    0.03170    0.37550    1.000
    C61      C        0.47000    0.22020    0.42780    1.000
    H67      H        0.48380    0.16940    0.45410    1.000
    C62      C        0.41464    0.13150    0.29500    1.000
    C63      C        0.38913    0.14540    0.17960    1.000
    C64      C        0.39555    0.19470    0.10970    1.000
    H68      H        0.41040    0.26090    0.10260    1.000
    C65      C        0.38059    0.14830    0.05180    1.000
    H69      H        0.38480    0.18390    0.00460    1.000
    C66      C        0.35920    0.04940    0.06130    1.000
    C67      C        0.35304    0.99860    0.13090    1.000
    H70      H        0.33860    0.92970    0.13800    1.000
    C68      C        0.36803    0.04890    0.18990    1.000
    H71      H        0.36360    0.01610    0.23750    1.000
    C69      C        0.30092    0.10480    0.03950    1.000
    H72      H        0.31040    0.17780    0.06680    1.000
    C70      C        0.27293    0.10440    0.03950    1.000
    H73      H        0.26330    0.17670    0.06700    1.000
    O10      O        0.21999    0.02190    0.10460    1.000
    N9       N        0.22951    0.98900    0.98590    1.000
    C71      C        0.21240    0.00580    0.04130    1.000
    C72      C        0.13790    0.02000    0.06680    1.000
    C73      C        0.16410    0.02040    0.08000    1.000
    C74      C        0.18230    0.00380    0.02370    1.000
    C75      C        0.17160    0.98590    0.95520    1.000
    C76      C        0.14220    0.98900    0.94770    1.000
    O11      O        0.23812    0.47070    0.21050    1.000
    C77      C        0.22550    0.33690    0.18980    1.000
    H74      H        0.23950    0.25910    0.18190    1.000
    H75      H        0.21540    0.35150    0.14390    1.000
    C78      C        0.20640    0.29000    0.24800    1.000
    H76      H        0.19760    0.19600    0.23400    1.000
    H77      H        0.19250    0.36640    0.25510    1.000
    H78      H        0.21660    0.27510    0.29320    1.000
    C79      C        0.46850    0.39820    0.35930    1.000
    H79      H        0.48130    0.46720    0.34040    1.000
    C80      C        0.45080    0.32550    0.31320    1.000
    H80      H        0.45060    0.34730    0.26280    1.000
    C81      C        0.43360    0.19500    0.41660    1.000
    H81      H        0.42200    0.12400    0.43890    1.000
    C82      C        0.45140    0.27580    0.45810    1.000
    H82      H        0.45120    0.25750    0.50890    1.000
    H83      H        0.22340    0.97160    0.94190    1.000
    H84      H        0.12590    0.03160    0.10760    1.000
    H85      H        0.17130    0.03560    0.12790    1.000
    H86      H        0.18330    0.97200    0.91390    1.000
    H87      H        0.13450    0.98000    0.90000    1.000
    O12      O        0.22002    0.11210    0.16380    1.000
    H88      H        0.23480    0.08890    0.18490    1.000
    C83      C        0.21510    0.26140    0.17660    1.000
    H89      H        0.20650    0.30600    0.13300    1.000
    H90      H        0.23260    0.31300    0.18520    1.000
    C84      C        0.19680    0.28400    0.24060    1.000
    H91      H        0.19330    0.39070    0.24710    1.000
    H92      H        0.20550    0.24410    0.28420    1.000
    H93      H        0.17940    0.23250    0.23240    1.000
    O13      O        0.09065    0.99910    0.80700    1.000
    N10      N        0.03243    0.63040    0.93610    1.000
    N11      N        0.09504    0.79570    0.73770    1.000
    H94      H        0.09120    0.70020    0.73540    1.000
    C85      C        0.05460    0.57230    0.91210    1.000
    H95      H        0.05950    0.47600    0.92870    1.000
    C86      C        0.07210    0.64600    0.86180    1.000
    H96      H        0.08710    0.59380    0.84150    1.000
    C87      C        0.06746    0.78440    0.84330    1.000
    C88      C        0.04750    0.86370    0.88080    1.000
    H97      H        0.04560    0.96830    0.87550    1.000
    C89      C        0.03000    0.77980    0.92780    1.000
    H98      H        0.01620    0.83060    0.95410    1.000
    C90      C        0.08536    0.86850    0.79500    1.000
    C91      C        0.11087    0.85460    0.67960    1.000
    C92      C        0.10445    0.80530    0.60970    1.000
    H99      H        0.08960    0.73910    0.60260    1.000
    C93      C        0.11941    0.85170    0.55180    1.000
    H100     H        0.11520    0.81610    0.50460    1.000
    C94      C        0.14080    0.95060    0.56130    1.000
    C95      C        0.14696    0.00140    0.63090    1.000
    H101     H        0.16140    0.07030    0.63800    1.000
    C96      C        0.13197    0.95110    0.68990    1.000
    H102     H        0.13640    0.98390    0.73750    1.000
    C97      C        0.19908    0.89520    0.53950    1.000
    H103     H        0.18960    0.82220    0.56680    1.000
    C98      C        0.22707    0.89560    0.53950    1.000
    H104     H        0.23670    0.82330    0.56700    1.000
    O14      O        0.28001    0.97810    0.60460    1.000
    N12      N        0.27049    0.01100    0.48590    1.000
    C99      C        0.28760    0.99420    0.54130    1.000
    C100     C        0.36210    0.98000    0.56680    1.000
    C101     C        0.33590    0.97960    0.58000    1.000
    C102     C        0.31770    0.99620    0.52370    1.000
    C103     C        0.32840    0.01410    0.45520    1.000
    C104     C        0.35780    0.01100    0.44770    1.000
    O15      O        0.26188    0.52930    0.71050    1.000
    C105     C        0.27450    0.66310    0.68980    1.000
    H105     H        0.26050    0.74090    0.68190    1.000
    H106     H        0.28460    0.64850    0.64390    1.000
    C106     C        0.29360    0.71000    0.74800    1.000
    H107     H        0.30240    0.80400    0.73400    1.000
    H108     H        0.30750    0.63360    0.75510    1.000
    H109     H        0.28340    0.72490    0.79320    1.000
    C107     C        0.03150    0.60180    0.85930    1.000
    H110     H        0.01870    0.53280    0.84040    1.000
    C108     C        0.04920    0.67450    0.81320    1.000
    H111     H        0.04940    0.65270    0.76280    1.000
    C109     C        0.06640    0.80500    0.91660    1.000
    H112     H        0.07800    0.87600    0.93890    1.000
    C110     C        0.04860    0.72420    0.95810    1.000
    H113     H        0.04880    0.74250    0.00890    1.000
    H114     H        0.27660    0.02840    0.44190    1.000
    H115     H        0.37410    0.96840    0.60760    1.000
    H116     H        0.32870    0.96440    0.62790    1.000
    H117     H        0.31670    0.02800    0.41390    1.000
    H118     H        0.36550    0.02000    0.40000    1.000
    O16      O        0.27998    0.88790    0.66380    1.000
    H119     H        0.26520    0.91110    0.68490    1.000
    C111     C        0.28490    0.73860    0.67660    1.000
    H120     H        0.29350    0.69400    0.63300    1.000
    H121     H        0.26740    0.68700    0.68520    1.000
    C112     C        0.30320    0.71600    0.74060    1.000
    H122     H        0.30670    0.60930    0.74710    1.000
    H123     H        0.29450    0.75590    0.78420    1.000
    H124     H        0.32060    0.76750    0.73240    1.000
    O17      O        0.90935    0.99910    0.80700    1.000
    N13      N        0.96757    0.63040    0.93610    1.000
    N14      N        0.90496    0.79570    0.73770    1.000
    H125     H        0.90880    0.70020    0.73540    1.000
    C113     C        0.94540    0.57230    0.91210    1.000
    H126     H        0.94050    0.47600    0.92870    1.000
    C114     C        0.92790    0.64600    0.86180    1.000
    H127     H        0.91290    0.59380    0.84150    1.000
    C115     C        0.93254    0.78440    0.84330    1.000
    C116     C        0.95250    0.86370    0.88080    1.000
    H128     H        0.95440    0.96830    0.87550    1.000
    C117     C        0.97000    0.77980    0.92780    1.000
    H129     H        0.98380    0.83060    0.95410    1.000
    C118     C        0.91464    0.86850    0.79500    1.000
    C119     C        0.88913    0.85460    0.67960    1.000
    C120     C        0.89555    0.80530    0.60970    1.000
    H130     H        0.91040    0.73910    0.60260    1.000
    C121     C        0.88059    0.85170    0.55180    1.000
    H131     H        0.88480    0.81610    0.50460    1.000
    C122     C        0.85920    0.95060    0.56130    1.000
    C123     C        0.85304    0.00140    0.63090    1.000
    H132     H        0.83860    0.07030    0.63800    1.000
    C124     C        0.86803    0.95110    0.68990    1.000
    H133     H        0.86360    0.98390    0.73750    1.000
    C125     C        0.80092    0.89520    0.53950    1.000
    H134     H        0.81040    0.82220    0.56680    1.000
    C126     C        0.77293    0.89560    0.53950    1.000
    H135     H        0.76330    0.82330    0.56700    1.000
    O18      O        0.71999    0.97810    0.60460    1.000
    N15      N        0.72951    0.01100    0.48590    1.000
    C127     C        0.71240    0.99420    0.54130    1.000
    C128     C        0.63790    0.98000    0.56680    1.000
    C129     C        0.66410    0.97960    0.58000    1.000
    C130     C        0.68230    0.99620    0.52370    1.000
    C131     C        0.67160    0.01410    0.45520    1.000
    C132     C        0.64220    0.01100    0.44770    1.000
    O19      O        0.73812    0.52930    0.71050    1.000
    C133     C        0.72550    0.66310    0.68980    1.000
    H136     H        0.73950    0.74090    0.68190    1.000
    H137     H        0.71540    0.64850    0.64390    1.000
    C134     C        0.70640    0.71000    0.74800    1.000
    H138     H        0.69760    0.80400    0.73400    1.000
    H139     H        0.69250    0.63360    0.75510    1.000
    H140     H        0.71660    0.72490    0.79320    1.000
    C135     C        0.96850    0.60180    0.85930    1.000
    H141     H        0.98130    0.53280    0.84040    1.000
    C136     C        0.95080    0.67450    0.81320    1.000
    H142     H        0.95060    0.65270    0.76280    1.000
    C137     C        0.93360    0.80500    0.91660    1.000
    H143     H        0.92200    0.87600    0.93890    1.000
    C138     C        0.95140    0.72420    0.95810    1.000
    H144     H        0.95120    0.74250    0.00890    1.000
    H145     H        0.72340    0.02840    0.44190    1.000
    H146     H        0.62590    0.96840    0.60760    1.000
    H147     H        0.67130    0.96440    0.62790    1.000
    H148     H        0.68330    0.02800    0.41390    1.000
    H149     H        0.63450    0.02000    0.40000    1.000
    O20      O        0.72002    0.88790    0.66380    1.000
    H150     H        0.73480    0.91110    0.68490    1.000
    C139     C        0.71510    0.73860    0.67660    1.000
    H151     H        0.70650    0.69400    0.63300    1.000
    H152     H        0.73260    0.68700    0.68520    1.000
    C140     C        0.69680    0.71600    0.74060    1.000
    H153     H        0.69330    0.60930    0.74710    1.000
    H154     H        0.70550    0.75590    0.78420    1.000
    H155     H        0.67940    0.76750    0.73240    1.000
    O21      O        0.59065    0.00090    0.30700    1.000
    N16      N        0.53243    0.36960    0.43610    1.000
    N17      N        0.59504    0.20430    0.23770    1.000
    H156     H        0.59120    0.29980    0.23540    1.000
    C141     C        0.55460    0.42770    0.41210    1.000
    H157     H        0.55950    0.52400    0.42870    1.000
    C142     C        0.57210    0.35400    0.36180    1.000
    H158     H        0.58710    0.40620    0.34150    1.000
    C143     C        0.56746    0.21560    0.34330    1.000
    C144     C        0.54750    0.13630    0.38080    1.000
    H159     H        0.54560    0.03170    0.37550    1.000
    C145     C        0.53000    0.22020    0.42780    1.000
    H160     H        0.51620    0.16940    0.45410    1.000
    C146     C        0.58536    0.13150    0.29500    1.000
    C147     C        0.61087    0.14540    0.17960    1.000
    C148     C        0.60445    0.19470    0.10970    1.000
    H161     H        0.58960    0.26090    0.10260    1.000
    C149     C        0.61941    0.14830    0.05180    1.000
    H162     H        0.61520    0.18390    0.00460    1.000
    C150     C        0.64080    0.04940    0.06130    1.000
    C151     C        0.64696    0.99860    0.13090    1.000
    H163     H        0.66140    0.92970    0.13800    1.000
    C152     C        0.63197    0.04890    0.18990    1.000
    H164     H        0.63640    0.01610    0.23750    1.000
    C153     C        0.69908    0.10480    0.03950    1.000
    H165     H        0.68960    0.17780    0.06680    1.000
    C154     C        0.72707    0.10440    0.03950    1.000
    H166     H        0.73670    0.17670    0.06700    1.000
    O22      O        0.78001    0.02190    0.10460    1.000
    N18      N        0.77049    0.98900    0.98590    1.000
    C155     C        0.78760    0.00580    0.04130    1.000
    C156     C        0.86210    0.02000    0.06680    1.000
    C157     C        0.83590    0.02040    0.08000    1.000
    C158     C        0.81770    0.00380    0.02370    1.000
    C159     C        0.82840    0.98590    0.95520    1.000
    C160     C        0.85780    0.98900    0.94770    1.000
    O23      O        0.76188    0.47070    0.21050    1.000
    C161     C        0.77450    0.33690    0.18980    1.000
    H167     H        0.76050    0.25910    0.18190    1.000
    H168     H        0.78460    0.35150    0.14390    1.000
    C162     C        0.79360    0.29000    0.24800    1.000
    H169     H        0.80240    0.19600    0.23400    1.000
    H170     H        0.80750    0.36640    0.25510    1.000
    H171     H        0.78340    0.27510    0.29320    1.000
    C163     C        0.53150    0.39820    0.35930    1.000
    H172     H        0.51870    0.46720    0.34040    1.000
    C164     C        0.54920    0.32550    0.31320    1.000
    H173     H        0.54940    0.34730    0.26280    1.000
    C165     C        0.56640    0.19500    0.41660    1.000
    H174     H        0.57800    0.12400    0.43890    1.000
    C166     C        0.54860    0.27580    0.45810    1.000
    H175     H        0.54880    0.25750    0.50890    1.000
    H176     H        0.77660    0.97160    0.94190    1.000
    H177     H        0.87410    0.03160    0.10760    1.000
    H178     H        0.82870    0.03560    0.12790    1.000
    H179     H        0.81670    0.97200    0.91390    1.000
    H180     H        0.86550    0.98000    0.90000    1.000
    O24      O        0.77998    0.11210    0.16380    1.000
    H181     H        0.76520    0.08890    0.18490    1.000
    C167     C        0.78490    0.26140    0.17660    1.000
    H182     H        0.79350    0.30600    0.13300    1.000
    H183     H        0.76740    0.31300    0.18520    1.000
    C168     C        0.80320    0.28400    0.24060    1.000
    H184     H        0.80670    0.39070    0.24710    1.000
    H185     H        0.79450    0.24410    0.28420    1.000
    H186     H        0.82060    0.23250    0.23240    1.000
    O25      O        0.59065    0.99910    0.69300    1.000
    N19      N        0.53243    0.63040    0.56390    1.000
    N20      N        0.59504    0.79570    0.76230    1.000
    H187     H        0.59120    0.70020    0.76460    1.000
    C169     C        0.55460    0.57230    0.58790    1.000
    H188     H        0.55950    0.47600    0.57130    1.000
    C170     C        0.57210    0.64600    0.63820    1.000
    H189     H        0.58710    0.59380    0.65850    1.000
    C171     C        0.56746    0.78440    0.65670    1.000
    C172     C        0.54750    0.86370    0.61920    1.000
    H190     H        0.54560    0.96830    0.62450    1.000
    C173     C        0.53000    0.77980    0.57220    1.000
    H191     H        0.51620    0.83060    0.54590    1.000
    C174     C        0.58536    0.86850    0.70500    1.000
    C175     C        0.61087    0.85460    0.82040    1.000
    C176     C        0.60445    0.80530    0.89030    1.000
    H192     H        0.58960    0.73910    0.89740    1.000
    C177     C        0.61941    0.85170    0.94820    1.000
    H193     H        0.61520    0.81610    0.99540    1.000
    C178     C        0.64080    0.95060    0.93870    1.000
    C179     C        0.64696    0.00140    0.86910    1.000
    H194     H        0.66140    0.07030    0.86200    1.000
    C180     C        0.63197    0.95110    0.81010    1.000
    H195     H        0.63640    0.98390    0.76250    1.000
    C181     C        0.69908    0.89520    0.96050    1.000
    H196     H        0.68960    0.82220    0.93320    1.000
    C182     C        0.72707    0.89560    0.96050    1.000
    H197     H        0.73670    0.82330    0.93300    1.000
    O26      O        0.78001    0.97810    0.89540    1.000
    N21      N        0.77049    0.01100    0.01410    1.000
    C183     C        0.78760    0.99420    0.95870    1.000
    C184     C        0.86210    0.98000    0.93320    1.000
    C185     C        0.83590    0.97960    0.92000    1.000
    C186     C        0.81770    0.99620    0.97630    1.000
    C187     C        0.82840    0.01410    0.04480    1.000
    C188     C        0.85780    0.01100    0.05230    1.000
    O27      O        0.76188    0.52930    0.78950    1.000
    C189     C        0.77450    0.66310    0.81020    1.000
    H198     H        0.76050    0.74090    0.81810    1.000
    H199     H        0.78460    0.64850    0.85610    1.000
    C190     C        0.79360    0.71000    0.75200    1.000
    H200     H        0.80240    0.80400    0.76600    1.000
    H201     H        0.80750    0.63360    0.74490    1.000
    H202     H        0.78340    0.72490    0.70680    1.000
    C191     C        0.53150    0.60180    0.64070    1.000
    H203     H        0.51870    0.53280    0.65960    1.000
    C192     C        0.54920    0.67450    0.68680    1.000
    H204     H        0.54940    0.65270    0.73720    1.000
    C193     C        0.56640    0.80500    0.58340    1.000
    H205     H        0.57800    0.87600    0.56110    1.000
    C194     C        0.54860    0.72420    0.54190    1.000
    H206     H        0.54880    0.74250    0.49110    1.000
    H207     H        0.77660    0.02840    0.05810    1.000
    H208     H        0.87410    0.96840    0.89240    1.000
    H209     H        0.82870    0.96440    0.87210    1.000
    H210     H        0.81670    0.02800    0.08610    1.000
    H211     H        0.86550    0.02000    0.10000    1.000
    O28      O        0.77998    0.88790    0.83620    1.000
    H212     H        0.76520    0.91110    0.81510    1.000
    C195     C        0.78490    0.73860    0.82340    1.000
    H213     H        0.79350    0.69400    0.86700    1.000
    H214     H        0.76740    0.68700    0.81480    1.000
    C196     C        0.80320    0.71600    0.75940    1.000
    H215     H        0.80670    0.60930    0.75290    1.000
    H216     H        0.79450    0.75590    0.71580    1.000
    H217     H        0.82060    0.76750    0.76760    1.000
    O29      O        0.90935    0.00090    0.19300    1.000
    N22      N        0.96757    0.36960    0.06390    1.000
    N23      N        0.90496    0.20430    0.26230    1.000
    H218     H        0.90880    0.29980    0.26460    1.000
    C197     C        0.94540    0.42770    0.08790    1.000
    H219     H        0.94050    0.52400    0.07130    1.000
    C198     C        0.92790    0.35400    0.13820    1.000
    H220     H        0.91290    0.40620    0.15850    1.000
    C199     C        0.93254    0.21560    0.15670    1.000
    C200     C        0.95250    0.13630    0.11920    1.000
    H221     H        0.95440    0.03170    0.12450    1.000
    C201     C        0.97000    0.22020    0.07220    1.000
    H222     H        0.98380    0.16940    0.04590    1.000
    C202     C        0.91464    0.13150    0.20500    1.000
    C203     C        0.88913    0.14540    0.32040    1.000
    C204     C        0.89555    0.19470    0.39030    1.000
    H223     H        0.91040    0.26090    0.39740    1.000
    C205     C        0.88059    0.14830    0.44820    1.000
    H224     H        0.88480    0.18390    0.49540    1.000
    C206     C        0.85920    0.04940    0.43870    1.000
    C207     C        0.85304    0.99860    0.36910    1.000
    H225     H        0.83860    0.92970    0.36200    1.000
    C208     C        0.86803    0.04890    0.31010    1.000
    H226     H        0.86360    0.01610    0.26250    1.000
    C209     C        0.80092    0.10480    0.46050    1.000
    H227     H        0.81040    0.17780    0.43320    1.000
    C210     C        0.77293    0.10440    0.46050    1.000
    H228     H        0.76330    0.17670    0.43300    1.000
    O30      O        0.71999    0.02190    0.39540    1.000
    N24      N        0.72951    0.98900    0.51410    1.000
    C211     C        0.71240    0.00580    0.45870    1.000
    C212     C        0.63790    0.02000    0.43320    1.000
    C213     C        0.66410    0.02040    0.42000    1.000
    C214     C        0.68230    0.00380    0.47630    1.000
    C215     C        0.67160    0.98590    0.54480    1.000
    C216     C        0.64220    0.98900    0.55230    1.000
    O31      O        0.73812    0.47070    0.28950    1.000
    C217     C        0.72550    0.33690    0.31020    1.000
    H229     H        0.73950    0.25910    0.31810    1.000
    H230     H        0.71540    0.35150    0.35610    1.000
    C218     C        0.70640    0.29000    0.25200    1.000
    H231     H        0.69760    0.19600    0.26600    1.000
    H232     H        0.69250    0.36640    0.24490    1.000
    H233     H        0.71660    0.27510    0.20680    1.000
    C219     C        0.96850    0.39820    0.14070    1.000
    H234     H        0.98130    0.46720    0.15960    1.000
    C220     C        0.95080    0.32550    0.18680    1.000
    H235     H        0.95060    0.34730    0.23720    1.000
    C221     C        0.93360    0.19500    0.08340    1.000
    H236     H        0.92200    0.12400    0.06110    1.000
    C222     C        0.95140    0.27580    0.04190    1.000
    H237     H        0.95120    0.25750    0.99110    1.000
    H238     H        0.72340    0.97160    0.55810    1.000
    H239     H        0.62590    0.03160    0.39240    1.000
    H240     H        0.67130    0.03560    0.37210    1.000
    H241     H        0.68330    0.97200    0.58610    1.000
    H242     H        0.63450    0.98000    0.60000    1.000
    O32      O        0.72002    0.11210    0.33620    1.000
    H243     H        0.73480    0.08890    0.31510    1.000
    C223     C        0.71510    0.26140    0.32340    1.000
    H244     H        0.70650    0.30600    0.36700    1.000
    H245     H        0.73260    0.31300    0.31480    1.000
    C224     C        0.69680    0.28400    0.25940    1.000
    H246     H        0.69330    0.39070    0.25290    1.000
    H247     H        0.70550    0.24410    0.21580    1.000
    H248     H        0.67940    0.23250    0.26760    1.000
    Cd1      Cd       0.00000    0.50000    0.00000    1.000
    Cd2      Cd       0.50000    0.50000    0.50000    1.000
    N25      N        0.15577    0.00000    0.50000    1.000
    C225     C        0.18451    0.00000    0.50000    1.000
    C226     C        0.24135    0.00000    0.50000    1.000
    N26      N        0.37400    0.00000    0.50000    1.000
    N27      N        0.34423    0.00000    0.00000    1.000
    C227     C        0.31549    0.00000    0.00000    1.000
    C228     C        0.25865    0.00000    0.00000    1.000
    N28      N        0.12600    0.00000    0.00000    1.000
    N29      N        0.84423    0.00000    0.50000    1.000
    C229     C        0.81549    0.00000    0.50000    1.000
    C230     C        0.75865    0.00000    0.50000    1.000
    N30      N        0.62600    0.00000    0.50000    1.000
    N31      N        0.65577    0.00000    0.00000    1.000
    C231     C        0.68451    0.00000    0.00000    1.000
    C232     C        0.74135    0.00000    0.00000    1.000
    N32      N        0.87400    0.00000    0.00000    1.000
    H249     H        0.25000    0.45430    0.25000    1.000
    H250     H        0.25000    0.54570    0.75000    1.000
    H251     H        0.75000    0.54570    0.75000    1.000
    H252     H        0.75000    0.45430    0.25000    1.000
    O33      O        0.59065    0.50090    0.19300    1.000
    N33      N        0.53243    0.86960    0.06390    1.000
    N34      N        0.59504    0.70430    0.26230    1.000
    H253     H        0.59120    0.79980    0.26460    1.000
    C233     C        0.55460    0.92770    0.08790    1.000
    H254     H        0.55950    0.02400    0.07130    1.000
    C234     C        0.57210    0.85400    0.13820    1.000
    H255     H        0.58710    0.90620    0.15850    1.000
    C235     C        0.56746    0.71560    0.15670    1.000
    C236     C        0.54750    0.63630    0.11920    1.000
    H256     H        0.54560    0.53170    0.12450    1.000
    C237     C        0.53000    0.72020    0.07220    1.000
    H257     H        0.51620    0.66940    0.04590    1.000
    C238     C        0.58536    0.63150    0.20500    1.000
    C239     C        0.61087    0.64540    0.32040    1.000
    C240     C        0.60445    0.69470    0.39030    1.000
    H258     H        0.58960    0.76090    0.39740    1.000
    C241     C        0.61941    0.64830    0.44820    1.000
    H259     H        0.61520    0.68390    0.49540    1.000
    C242     C        0.64080    0.54940    0.43870    1.000
    C243     C        0.64696    0.49860    0.36910    1.000
    H260     H        0.66140    0.42970    0.36200    1.000
    C244     C        0.63197    0.54890    0.31010    1.000
    H261     H        0.63640    0.51610    0.26250    1.000
    C245     C        0.69908    0.60480    0.46050    1.000
    H262     H        0.68960    0.67780    0.43320    1.000
    C246     C        0.72707    0.60440    0.46050    1.000
    H263     H        0.73670    0.67670    0.43300    1.000
    O34      O        0.78001    0.52190    0.39540    1.000
    N35      N        0.77049    0.48900    0.51410    1.000
    C247     C        0.78760    0.50580    0.45870    1.000
    C248     C        0.86210    0.52000    0.43320    1.000
    C249     C        0.83590    0.52040    0.42000    1.000
    C250     C        0.81770    0.50380    0.47630    1.000
    C251     C        0.82840    0.48590    0.54480    1.000
    C252     C        0.85780    0.48900    0.55230    1.000
    O35      O        0.76188    0.97070    0.28950    1.000
    C253     C        0.77450    0.83690    0.31020    1.000
    H264     H        0.76050    0.75910    0.31810    1.000
    H265     H        0.78460    0.85150    0.35610    1.000
    C254     C        0.79360    0.79000    0.25200    1.000
    H266     H        0.80240    0.69600    0.26600    1.000
    H267     H        0.80750    0.86640    0.24490    1.000
    H268     H        0.78340    0.77510    0.20680    1.000
    C255     C        0.53150    0.89820    0.14070    1.000
    H269     H        0.51870    0.96720    0.15960    1.000
    C256     C        0.54920    0.82550    0.18680    1.000
    H270     H        0.54940    0.84730    0.23720    1.000
    C257     C        0.56640    0.69500    0.08340    1.000
    H271     H        0.57800    0.62400    0.06110    1.000
    C258     C        0.54860    0.77580    0.04190    1.000
    H272     H        0.54880    0.75750    0.99110    1.000
    H273     H        0.77660    0.47160    0.55810    1.000
    H274     H        0.87410    0.53160    0.39240    1.000
    H275     H        0.82870    0.53560    0.37210    1.000
    H276     H        0.81670    0.47200    0.58610    1.000
    H277     H        0.86550    0.48000    0.60000    1.000
    O36      O        0.77998    0.61210    0.33620    1.000
    H278     H        0.76520    0.58890    0.31510    1.000
    C259     C        0.78490    0.76140    0.32340    1.000
    H279     H        0.79350    0.80600    0.36700    1.000
    H280     H        0.76740    0.81300    0.31480    1.000
    C260     C        0.80320    0.78400    0.25940    1.000
    H281     H        0.80670    0.89070    0.25290    1.000
    H282     H        0.79450    0.74410    0.21580    1.000
    H283     H        0.82060    0.73250    0.26760    1.000
    O37      O        0.90935    0.49910    0.69300    1.000
    N36      N        0.96757    0.13040    0.56390    1.000
    N37      N        0.90496    0.29570    0.76230    1.000
    H284     H        0.90880    0.20020    0.76460    1.000
    C261     C        0.94540    0.07230    0.58790    1.000
    H285     H        0.94050    0.97600    0.57130    1.000
    C262     C        0.92790    0.14600    0.63820    1.000
    H286     H        0.91290    0.09380    0.65850    1.000
    C263     C        0.93254    0.28440    0.65670    1.000
    C264     C        0.95250    0.36370    0.61920    1.000
    H287     H        0.95440    0.46830    0.62450    1.000
    C265     C        0.97000    0.27980    0.57220    1.000
    H288     H        0.98380    0.33060    0.54590    1.000
    C266     C        0.91464    0.36850    0.70500    1.000
    C267     C        0.88913    0.35460    0.82040    1.000
    C268     C        0.89555    0.30530    0.89030    1.000
    H289     H        0.91040    0.23910    0.89740    1.000
    C269     C        0.88059    0.35170    0.94820    1.000
    H290     H        0.88480    0.31610    0.99540    1.000
    C270     C        0.85920    0.45060    0.93870    1.000
    C271     C        0.85304    0.50140    0.86910    1.000
    H291     H        0.83860    0.57030    0.86200    1.000
    C272     C        0.86803    0.45110    0.81010    1.000
    H292     H        0.86360    0.48390    0.76250    1.000
    C273     C        0.80092    0.39520    0.96050    1.000
    H293     H        0.81040    0.32220    0.93320    1.000
    C274     C        0.77293    0.39560    0.96050    1.000
    H294     H        0.76330    0.32330    0.93300    1.000
    O38      O        0.71999    0.47810    0.89540    1.000
    N38      N        0.72951    0.51100    0.01410    1.000
    C275     C        0.71240    0.49420    0.95870    1.000
    C276     C        0.63790    0.48000    0.93320    1.000
    C277     C        0.66410    0.47960    0.92000    1.000
    C278     C        0.68230    0.49620    0.97630    1.000
    C279     C        0.67160    0.51410    0.04480    1.000
    C280     C        0.64220    0.51100    0.05230    1.000
    O39      O        0.73812    0.02930    0.78950    1.000
    C281     C        0.72550    0.16310    0.81020    1.000
    H295     H        0.73950    0.24090    0.81810    1.000
    H296     H        0.71540    0.14850    0.85610    1.000
    C282     C        0.70640    0.21000    0.75200    1.000
    H297     H        0.69760    0.30400    0.76600    1.000
    H298     H        0.69250    0.13360    0.74490    1.000
    H299     H        0.71660    0.22490    0.70680    1.000
    C283     C        0.96850    0.10180    0.64070    1.000
    H300     H        0.98130    0.03280    0.65960    1.000
    C284     C        0.95080    0.17450    0.68680    1.000
    H301     H        0.95060    0.15270    0.73720    1.000
    C285     C        0.93360    0.30500    0.58340    1.000
    H302     H        0.92200    0.37600    0.56110    1.000
    C286     C        0.95140    0.22420    0.54190    1.000
    H303     H        0.95120    0.24250    0.49110    1.000
    H304     H        0.72340    0.52840    0.05810    1.000
    H305     H        0.62590    0.46840    0.89240    1.000
    H306     H        0.67130    0.46440    0.87210    1.000
    H307     H        0.68330    0.52800    0.08610    1.000
    H308     H        0.63450    0.52000    0.10000    1.000
    O40      O        0.72002    0.38790    0.83620    1.000
    H309     H        0.73480    0.41110    0.81510    1.000
    C287     C        0.71510    0.23860    0.82340    1.000
    H310     H        0.70650    0.19400    0.86700    1.000
    H311     H        0.73260    0.18700    0.81480    1.000
    C288     C        0.69680    0.21600    0.75940    1.000
    H312     H        0.69330    0.10930    0.75290    1.000
    H313     H        0.70550    0.25590    0.71580    1.000
    H314     H        0.67940    0.26750    0.76760    1.000
    O41      O        0.90935    0.50090    0.30700    1.000
    N39      N        0.96757    0.86960    0.43610    1.000
    N40      N        0.90496    0.70430    0.23770    1.000
    H315     H        0.90880    0.79980    0.23540    1.000
    C289     C        0.94540    0.92770    0.41210    1.000
    H316     H        0.94050    0.02400    0.42870    1.000
    C290     C        0.92790    0.85400    0.36180    1.000
    H317     H        0.91290    0.90620    0.34150    1.000
    C291     C        0.93254    0.71560    0.34330    1.000
    C292     C        0.95250    0.63630    0.38080    1.000
    H318     H        0.95440    0.53170    0.37550    1.000
    C293     C        0.97000    0.72020    0.42780    1.000
    H319     H        0.98380    0.66940    0.45410    1.000
    C294     C        0.91464    0.63150    0.29500    1.000
    C295     C        0.88913    0.64540    0.17960    1.000
    C296     C        0.89555    0.69470    0.10970    1.000
    H320     H        0.91040    0.76090    0.10260    1.000
    C297     C        0.88059    0.64830    0.05180    1.000
    H321     H        0.88480    0.68390    0.00460    1.000
    C298     C        0.85920    0.54940    0.06130    1.000
    C299     C        0.85304    0.49860    0.13090    1.000
    H322     H        0.83860    0.42970    0.13800    1.000
    C300     C        0.86803    0.54890    0.18990    1.000
    H323     H        0.86360    0.51610    0.23750    1.000
    C301     C        0.80092    0.60480    0.03950    1.000
    H324     H        0.81040    0.67780    0.06680    1.000
    C302     C        0.77293    0.60440    0.03950    1.000
    H325     H        0.76330    0.67670    0.06700    1.000
    O42      O        0.71999    0.52190    0.10460    1.000
    N41      N        0.72951    0.48900    0.98590    1.000
    C303     C        0.71240    0.50580    0.04130    1.000
    C304     C        0.63790    0.52000    0.06680    1.000
    C305     C        0.66410    0.52040    0.08000    1.000
    C306     C        0.68230    0.50380    0.02370    1.000
    C307     C        0.67160    0.48590    0.95520    1.000
    C308     C        0.64220    0.48900    0.94770    1.000
    O43      O        0.73812    0.97070    0.21050    1.000
    C309     C        0.72550    0.83690    0.18980    1.000
    H326     H        0.73950    0.75910    0.18190    1.000
    H327     H        0.71540    0.85150    0.14390    1.000
    C310     C        0.70640    0.79000    0.24800    1.000
    H328     H        0.69760    0.69600    0.23400    1.000
    H329     H        0.69250    0.86640    0.25510    1.000
    H330     H        0.71660    0.77510    0.29320    1.000
    C311     C        0.96850    0.89820    0.35930    1.000
    H331     H        0.98130    0.96720    0.34040    1.000
    C312     C        0.95080    0.82550    0.31320    1.000
    H332     H        0.95060    0.84730    0.26280    1.000
    C313     C        0.93360    0.69500    0.41660    1.000
    H333     H        0.92200    0.62400    0.43890    1.000
    C314     C        0.95140    0.77580    0.45810    1.000
    H334     H        0.95120    0.75750    0.50890    1.000
    H335     H        0.72340    0.47160    0.94190    1.000
    H336     H        0.62590    0.53160    0.10760    1.000
    H337     H        0.67130    0.53560    0.12790    1.000
    H338     H        0.68330    0.47200    0.91390    1.000
    H339     H        0.63450    0.48000    0.90000    1.000
    O44      O        0.72002    0.61210    0.16380    1.000
    H340     H        0.73480    0.58890    0.18490    1.000
    C315     C        0.71510    0.76140    0.17660    1.000
    H341     H        0.70650    0.80600    0.13300    1.000
    H342     H        0.73260    0.81300    0.18520    1.000
    C316     C        0.69680    0.78400    0.24060    1.000
    H343     H        0.69330    0.89070    0.24710    1.000
    H344     H        0.70550    0.74410    0.28420    1.000
    H345     H        0.67940    0.73250    0.23240    1.000
    O45      O        0.59065    0.49910    0.80700    1.000
    N42      N        0.53243    0.13040    0.93610    1.000
    N43      N        0.59504    0.29570    0.73770    1.000
    H346     H        0.59120    0.20020    0.73540    1.000
    C317     C        0.55460    0.07230    0.91210    1.000
    H347     H        0.55950    0.97600    0.92870    1.000
    C318     C        0.57210    0.14600    0.86180    1.000
    H348     H        0.58710    0.09380    0.84150    1.000
    C319     C        0.56746    0.28440    0.84330    1.000
    C320     C        0.54750    0.36370    0.88080    1.000
    H349     H        0.54560    0.46830    0.87550    1.000
    C321     C        0.53000    0.27980    0.92780    1.000
    H350     H        0.51620    0.33060    0.95410    1.000
    C322     C        0.58536    0.36850    0.79500    1.000
    C323     C        0.61087    0.35460    0.67960    1.000
    C324     C        0.60445    0.30530    0.60970    1.000
    H351     H        0.58960    0.23910    0.60260    1.000
    C325     C        0.61941    0.35170    0.55180    1.000
    H352     H        0.61520    0.31610    0.50460    1.000
    C326     C        0.64080    0.45060    0.56130    1.000
    C327     C        0.64696    0.50140    0.63090    1.000
    H353     H        0.66140    0.57030    0.63800    1.000
    C328     C        0.63197    0.45110    0.68990    1.000
    H354     H        0.63640    0.48390    0.73750    1.000
    C329     C        0.69908    0.39520    0.53950    1.000
    H355     H        0.68960    0.32220    0.56680    1.000
    C330     C        0.72707    0.39560    0.53950    1.000
    H356     H        0.73670    0.32330    0.56700    1.000
    O46      O        0.78001    0.47810    0.60460    1.000
    N44      N        0.77049    0.51100    0.48590    1.000
    C331     C        0.78760    0.49420    0.54130    1.000
    C332     C        0.86210    0.48000    0.56680    1.000
    C333     C        0.83590    0.47960    0.58000    1.000
    C334     C        0.81770    0.49620    0.52370    1.000
    C335     C        0.82840    0.51410    0.45520    1.000
    C336     C        0.85780    0.51100    0.44770    1.000
    O47      O        0.76188    0.02930    0.71050    1.000
    C337     C        0.77450    0.16310    0.68980    1.000
    H357     H        0.76050    0.24090    0.68190    1.000
    H358     H        0.78460    0.14850    0.64390    1.000
    C338     C        0.79360    0.21000    0.74800    1.000
    H359     H        0.80240    0.30400    0.73400    1.000
    H360     H        0.80750    0.13360    0.75510    1.000
    H361     H        0.78340    0.22490    0.79320    1.000
    C339     C        0.53150    0.10180    0.85930    1.000
    H362     H        0.51870    0.03280    0.84040    1.000
    C340     C        0.54920    0.17450    0.81320    1.000
    H363     H        0.54940    0.15270    0.76280    1.000
    C341     C        0.56640    0.30500    0.91660    1.000
    H364     H        0.57800    0.37600    0.93890    1.000
    C342     C        0.54860    0.22420    0.95810    1.000
    H365     H        0.54880    0.24250    0.00890    1.000
    H366     H        0.77660    0.52840    0.44190    1.000
    H367     H        0.87410    0.46840    0.60760    1.000
    H368     H        0.82870    0.46440    0.62790    1.000
    H369     H        0.81670    0.52800    0.41390    1.000
    H370     H        0.86550    0.52000    0.40000    1.000
    O48      O        0.77998    0.38790    0.66380    1.000
    H371     H        0.76520    0.41110    0.68490    1.000
    C343     C        0.78490    0.23860    0.67660    1.000
    H372     H        0.79350    0.19400    0.63300    1.000
    H373     H        0.76740    0.18700    0.68520    1.000
    C344     C        0.80320    0.21600    0.74060    1.000
    H374     H        0.80670    0.10930    0.74710    1.000
    H375     H        0.79450    0.25590    0.78420    1.000
    H376     H        0.82060    0.26750    0.73240    1.000
    O49      O        0.40935    0.49910    0.80700    1.000
    N45      N        0.46757    0.13040    0.93610    1.000
    N46      N        0.40496    0.29570    0.73770    1.000
    H377     H        0.40880    0.20020    0.73540    1.000
    C345     C        0.44540    0.07230    0.91210    1.000
    H378     H        0.44050    0.97600    0.92870    1.000
    C346     C        0.42790    0.14600    0.86180    1.000
    H379     H        0.41290    0.09380    0.84150    1.000
    C347     C        0.43254    0.28440    0.84330    1.000
    C348     C        0.45250    0.36370    0.88080    1.000
    H380     H        0.45440    0.46830    0.87550    1.000
    C349     C        0.47000    0.27980    0.92780    1.000
    H381     H        0.48380    0.33060    0.95410    1.000
    C350     C        0.41464    0.36850    0.79500    1.000
    C351     C        0.38913    0.35460    0.67960    1.000
    C352     C        0.39555    0.30530    0.60970    1.000
    H382     H        0.41040    0.23910    0.60260    1.000
    C353     C        0.38059    0.35170    0.55180    1.000
    H383     H        0.38480    0.31610    0.50460    1.000
    C354     C        0.35920    0.45060    0.56130    1.000
    C355     C        0.35304    0.50140    0.63090    1.000
    H384     H        0.33860    0.57030    0.63800    1.000
    C356     C        0.36803    0.45110    0.68990    1.000
    H385     H        0.36360    0.48390    0.73750    1.000
    C357     C        0.30092    0.39520    0.53950    1.000
    H386     H        0.31040    0.32220    0.56680    1.000
    C358     C        0.27293    0.39560    0.53950    1.000
    H387     H        0.26330    0.32330    0.56700    1.000
    O50      O        0.21999    0.47810    0.60460    1.000
    N47      N        0.22951    0.51100    0.48590    1.000
    C359     C        0.21240    0.49420    0.54130    1.000
    C360     C        0.13790    0.48000    0.56680    1.000
    C361     C        0.16410    0.47960    0.58000    1.000
    C362     C        0.18230    0.49620    0.52370    1.000
    C363     C        0.17160    0.51410    0.45520    1.000
    C364     C        0.14220    0.51100    0.44770    1.000
    O51      O        0.23812    0.02930    0.71050    1.000
    C365     C        0.22550    0.16310    0.68980    1.000
    H388     H        0.23950    0.24090    0.68190    1.000
    H389     H        0.21540    0.14850    0.64390    1.000
    C366     C        0.20640    0.21000    0.74800    1.000
    H390     H        0.19760    0.30400    0.73400    1.000
    H391     H        0.19250    0.13360    0.75510    1.000
    H392     H        0.21660    0.22490    0.79320    1.000
    C367     C        0.46850    0.10180    0.85930    1.000
    H393     H        0.48130    0.03280    0.84040    1.000
    C368     C        0.45080    0.17450    0.81320    1.000
    H394     H        0.45060    0.15270    0.76280    1.000
    C369     C        0.43360    0.30500    0.91660    1.000
    H395     H        0.42200    0.37600    0.93890    1.000
    C370     C        0.45140    0.22420    0.95810    1.000
    H396     H        0.45120    0.24250    0.00890    1.000
    H397     H        0.22340    0.52840    0.44190    1.000
    H398     H        0.12590    0.46840    0.60760    1.000
    H399     H        0.17130    0.46440    0.62790    1.000
    H400     H        0.18330    0.52800    0.41390    1.000
    H401     H        0.13450    0.52000    0.40000    1.000
    O52      O        0.22002    0.38790    0.66380    1.000
    H402     H        0.23480    0.41110    0.68490    1.000
    C371     C        0.21510    0.23860    0.67660    1.000
    H403     H        0.20650    0.19400    0.63300    1.000
    H404     H        0.23260    0.18700    0.68520    1.000
    C372     C        0.19680    0.21600    0.74060    1.000
    H405     H        0.19330    0.10930    0.74710    1.000
    H406     H        0.20550    0.25590    0.78420    1.000
    H407     H        0.17940    0.26750    0.73240    1.000
    O53      O        0.09065    0.50090    0.30700    1.000
    N48      N        0.03243    0.86960    0.43610    1.000
    N49      N        0.09504    0.70430    0.23770    1.000
    H408     H        0.09120    0.79980    0.23540    1.000
    C373     C        0.05460    0.92770    0.41210    1.000
    H409     H        0.05950    0.02400    0.42870    1.000
    C374     C        0.07210    0.85400    0.36180    1.000
    H410     H        0.08710    0.90620    0.34150    1.000
    C375     C        0.06746    0.71560    0.34330    1.000
    C376     C        0.04750    0.63630    0.38080    1.000
    H411     H        0.04560    0.53170    0.37550    1.000
    C377     C        0.03000    0.72020    0.42780    1.000
    H412     H        0.01620    0.66940    0.45410    1.000
    C378     C        0.08536    0.63150    0.29500    1.000
    C379     C        0.11087    0.64540    0.17960    1.000
    C380     C        0.10445    0.69470    0.10970    1.000
    H413     H        0.08960    0.76090    0.10260    1.000
    C381     C        0.11941    0.64830    0.05180    1.000
    H414     H        0.11520    0.68390    0.00460    1.000
    C382     C        0.14080    0.54940    0.06130    1.000
    C383     C        0.14696    0.49860    0.13090    1.000
    H415     H        0.16140    0.42970    0.13800    1.000
    C384     C        0.13197    0.54890    0.18990    1.000
    H416     H        0.13640    0.51610    0.23750    1.000
    C385     C        0.19908    0.60480    0.03950    1.000
    H417     H        0.18960    0.67780    0.06680    1.000
    C386     C        0.22707    0.60440    0.03950    1.000
    H418     H        0.23670    0.67670    0.06700    1.000
    O54      O        0.28001    0.52190    0.10460    1.000
    N50      N        0.27049    0.48900    0.98590    1.000
    C387     C        0.28760    0.50580    0.04130    1.000
    C388     C        0.36210    0.52000    0.06680    1.000
    C389     C        0.33590    0.52040    0.08000    1.000
    C390     C        0.31770    0.50380    0.02370    1.000
    C391     C        0.32840    0.48590    0.95520    1.000
    C392     C        0.35780    0.48900    0.94770    1.000
    O55      O        0.26188    0.97070    0.21050    1.000
    C393     C        0.27450    0.83690    0.18980    1.000
    H419     H        0.26050    0.75910    0.18190    1.000
    H420     H        0.28460    0.85150    0.14390    1.000
    C394     C        0.29360    0.79000    0.24800    1.000
    H421     H        0.30240    0.69600    0.23400    1.000
    H422     H        0.30750    0.86640    0.25510    1.000
    H423     H        0.28340    0.77510    0.29320    1.000
    C395     C        0.03150    0.89820    0.35930    1.000
    H424     H        0.01870    0.96720    0.34040    1.000
    C396     C        0.04920    0.82550    0.31320    1.000
    H425     H        0.04940    0.84730    0.26280    1.000
    C397     C        0.06640    0.69500    0.41660    1.000
    H426     H        0.07800    0.62400    0.43890    1.000
    C398     C        0.04860    0.77580    0.45810    1.000
    H427     H        0.04880    0.75750    0.50890    1.000
    H428     H        0.27660    0.47160    0.94190    1.000
    H429     H        0.37410    0.53160    0.10760    1.000
    H430     H        0.32870    0.53560    0.12790    1.000
    H431     H        0.31670    0.47200    0.91390    1.000
    H432     H        0.36550    0.48000    0.90000    1.000
    O56      O        0.27998    0.61210    0.16380    1.000
    H433     H        0.26520    0.58890    0.18490    1.000
    C399     C        0.28490    0.76140    0.17660    1.000
    H434     H        0.29350    0.80600    0.13300    1.000
    H435     H        0.26740    0.81300    0.18520    1.000
    C400     C        0.30320    0.78400    0.24060    1.000
    H436     H        0.30670    0.89070    0.24710    1.000
    H437     H        0.29450    0.74410    0.28420    1.000
    H438     H        0.32060    0.73250    0.23240    1.000
    O57      O        0.09065    0.49910    0.69300    1.000
    N51      N        0.03243    0.13040    0.56390    1.000
    N52      N        0.09504    0.29570    0.76230    1.000
    H439     H        0.09120    0.20020    0.76460    1.000
    C401     C        0.05460    0.07230    0.58790    1.000
    H440     H        0.05950    0.97600    0.57130    1.000
    C402     C        0.07210    0.14600    0.63820    1.000
    H441     H        0.08710    0.09380    0.65850    1.000
    C403     C        0.06746    0.28440    0.65670    1.000
    C404     C        0.04750    0.36370    0.61920    1.000
    H442     H        0.04560    0.46830    0.62450    1.000
    C405     C        0.03000    0.27980    0.57220    1.000
    H443     H        0.01620    0.33060    0.54590    1.000
    C406     C        0.08536    0.36850    0.70500    1.000
    C407     C        0.11087    0.35460    0.82040    1.000
    C408     C        0.10445    0.30530    0.89030    1.000
    H444     H        0.08960    0.23910    0.89740    1.000
    C409     C        0.11941    0.35170    0.94820    1.000
    H445     H        0.11520    0.31610    0.99540    1.000
    C410     C        0.14080    0.45060    0.93870    1.000
    C411     C        0.14696    0.50140    0.86910    1.000
    H446     H        0.16140    0.57030    0.86200    1.000
    C412     C        0.13197    0.45110    0.81010    1.000
    H447     H        0.13640    0.48390    0.76250    1.000
    C413     C        0.19908    0.39520    0.96050    1.000
    H448     H        0.18960    0.32220    0.93320    1.000
    C414     C        0.22707    0.39560    0.96050    1.000
    H449     H        0.23670    0.32330    0.93300    1.000
    O58      O        0.28001    0.47810    0.89540    1.000
    N53      N        0.27049    0.51100    0.01410    1.000
    C415     C        0.28760    0.49420    0.95870    1.000
    C416     C        0.36210    0.48000    0.93320    1.000
    C417     C        0.33590    0.47960    0.92000    1.000
    C418     C        0.31770    0.49620    0.97630    1.000
    C419     C        0.32840    0.51410    0.04480    1.000
    C420     C        0.35780    0.51100    0.05230    1.000
    O59      O        0.26188    0.02930    0.78950    1.000
    C421     C        0.27450    0.16310    0.81020    1.000
    H450     H        0.26050    0.24090    0.81810    1.000
    H451     H        0.28460    0.14850    0.85610    1.000
    C422     C        0.29360    0.21000    0.75200    1.000
    H452     H        0.30240    0.30400    0.76600    1.000
    H453     H        0.30750    0.13360    0.74490    1.000
    H454     H        0.28340    0.22490    0.70680    1.000
    C423     C        0.03150    0.10180    0.64070    1.000
    H455     H        0.01870    0.03280    0.65960    1.000
    C424     C        0.04920    0.17450    0.68680    1.000
    H456     H        0.04940    0.15270    0.73720    1.000
    C425     C        0.06640    0.30500    0.58340    1.000
    H457     H        0.07800    0.37600    0.56110    1.000
    C426     C        0.04860    0.22420    0.54190    1.000
    H458     H        0.04880    0.24250    0.49110    1.000
    H459     H        0.27660    0.52840    0.05810    1.000
    H460     H        0.37410    0.46840    0.89240    1.000
    H461     H        0.32870    0.46440    0.87210    1.000
    H462     H        0.31670    0.52800    0.08610    1.000
    H463     H        0.36550    0.52000    0.10000    1.000
    O60      O        0.27998    0.38790    0.83620    1.000
    H464     H        0.26520    0.41110    0.81510    1.000
    C427     C        0.28490    0.23860    0.82340    1.000
    H465     H        0.29350    0.19400    0.86700    1.000
    H466     H        0.26740    0.18700    0.81480    1.000
    C428     C        0.30320    0.21600    0.75940    1.000
    H467     H        0.30670    0.10930    0.75290    1.000
    H468     H        0.29450    0.25590    0.71580    1.000
    H469     H        0.32060    0.26750    0.76760    1.000
    O61      O        0.40935    0.50090    0.19300    1.000
    N54      N        0.46757    0.86960    0.06390    1.000
    N55      N        0.40496    0.70430    0.26230    1.000
    H470     H        0.40880    0.79980    0.26460    1.000
    C429     C        0.44540    0.92770    0.08790    1.000
    H471     H        0.44050    0.02400    0.07130    1.000
    C430     C        0.42790    0.85400    0.13820    1.000
    H472     H        0.41290    0.90620    0.15850    1.000
    C431     C        0.43254    0.71560    0.15670    1.000
    C432     C        0.45250    0.63630    0.11920    1.000
    H473     H        0.45440    0.53170    0.12450    1.000
    C433     C        0.47000    0.72020    0.07220    1.000
    H474     H        0.48380    0.66940    0.04590    1.000
    C434     C        0.41464    0.63150    0.20500    1.000
    C435     C        0.38913    0.64540    0.32040    1.000
    C436     C        0.39555    0.69470    0.39030    1.000
    H475     H        0.41040    0.76090    0.39740    1.000
    C437     C        0.38059    0.64830    0.44820    1.000
    H476     H        0.38480    0.68390    0.49540    1.000
    C438     C        0.35920    0.54940    0.43870    1.000
    C439     C        0.35304    0.49860    0.36910    1.000
    H477     H        0.33860    0.42970    0.36200    1.000
    C440     C        0.36803    0.54890    0.31010    1.000
    H478     H        0.36360    0.51610    0.26250    1.000
    C441     C        0.30092    0.60480    0.46050    1.000
    H479     H        0.31040    0.67780    0.43320    1.000
    C442     C        0.27293    0.60440    0.46050    1.000
    H480     H        0.26330    0.67670    0.43300    1.000
    O62      O        0.21999    0.52190    0.39540    1.000
    N56      N        0.22951    0.48900    0.51410    1.000
    C443     C        0.21240    0.50580    0.45870    1.000
    C444     C        0.13790    0.52000    0.43320    1.000
    C445     C        0.16410    0.52040    0.42000    1.000
    C446     C        0.18230    0.50380    0.47630    1.000
    C447     C        0.17160    0.48590    0.54480    1.000
    C448     C        0.14220    0.48900    0.55230    1.000
    O63      O        0.23812    0.97070    0.28950    1.000
    C449     C        0.22550    0.83690    0.31020    1.000
    H481     H        0.23950    0.75910    0.31810    1.000
    H482     H        0.21540    0.85150    0.35610    1.000
    C450     C        0.20640    0.79000    0.25200    1.000
    H483     H        0.19760    0.69600    0.26600    1.000
    H484     H        0.19250    0.86640    0.24490    1.000
    H485     H        0.21660    0.77510    0.20680    1.000
    C451     C        0.46850    0.89820    0.14070    1.000
    H486     H        0.48130    0.96720    0.15960    1.000
    C452     C        0.45080    0.82550    0.18680    1.000
    H487     H        0.45060    0.84730    0.23720    1.000
    C453     C        0.43360    0.69500    0.08340    1.000
    H488     H        0.42200    0.62400    0.06110    1.000
    C454     C        0.45140    0.77580    0.04190    1.000
    H489     H        0.45120    0.75750    0.99110    1.000
    H490     H        0.22340    0.47160    0.55810    1.000
    H491     H        0.12590    0.53160    0.39240    1.000
    H492     H        0.17130    0.53560    0.37210    1.000
    H493     H        0.18330    0.47200    0.58610    1.000
    H494     H        0.13450    0.48000    0.60000    1.000
    O64      O        0.22002    0.61210    0.33620    1.000
    H495     H        0.23480    0.58890    0.31510    1.000
    C455     C        0.21510    0.76140    0.32340    1.000
    H496     H        0.20650    0.80600    0.36700    1.000
    H497     H        0.23260    0.81300    0.31480    1.000
    C456     C        0.19680    0.78400    0.25940    1.000
    H498     H        0.19330    0.89070    0.25290    1.000
    H499     H        0.20550    0.74410    0.21580    1.000
    H500     H        0.17940    0.73250    0.26760    1.000
    Cd3      Cd       0.50000    0.00000    0.00000    1.000
    Cd4      Cd       0.00000    0.00000    0.50000    1.000
    N57      N        0.65577    0.50000    0.50000    1.000
    C457     C        0.68451    0.50000    0.50000    1.000
    C458     C        0.74135    0.50000    0.50000    1.000
    N58      N        0.87400    0.50000    0.50000    1.000
    N59      N        0.84423    0.50000    0.00000    1.000
    C459     C        0.81549    0.50000    0.00000    1.000
    C460     C        0.75865    0.50000    0.00000    1.000
    N60      N        0.62600    0.50000    0.00000    1.000
    N61      N        0.34423    0.50000    0.50000    1.000
    C461     C        0.31549    0.50000    0.50000    1.000
    C462     C        0.25865    0.50000    0.50000    1.000
    N62      N        0.12600    0.50000    0.50000    1.000
    N63      N        0.15577    0.50000    0.00000    1.000
    C463     C        0.18451    0.50000    0.00000    1.000
    C464     C        0.24135    0.50000    0.00000    1.000
    N64      N        0.37400    0.50000    0.00000    1.000
    H501     H        0.75000    0.04570    0.75000    1.000
    H502     H        0.75000    0.95430    0.25000    1.000
    H503     H        0.25000    0.95430    0.25000    1.000
    H504     H        0.25000    0.04570    0.75000    1.000
