# CIF file generated by openbabel 3.1.0, see https://openbabel.org
data_I
_chemical_name_common 'BAWRUO_clean'
_cell_length_a 15.4974
_cell_length_b 15.4974
_cell_length_c 16.723
_cell_angle_alpha 78.8202
_cell_angle_beta 78.8202
_cell_angle_gamma 66.6183
_space_group_name_H-M_alt 'P 1'
_space_group_name_Hall 'P 1'
loop_
    _symmetry_equiv_pos_as_xyz
    x,y,z
loop_
    _atom_site_label
    _atom_site_type_symbol
    _atom_site_fract_x
    _atom_site_fract_y
    _atom_site_fract_z
    _atom_site_occupancy
    U1       U        0.61614    0.57008    0.55190    1.000
    U2       U        0.62752    0.10270    0.62610    1.000
    U3       U        0.92420    0.87272    0.46879    1.000
    U4       U        0.74442    0.74140    0.76944    1.000
    U5       U        0.42992    0.38386    0.94810    1.000
    U6       U        0.89730    0.37248    0.87390    1.000
    U7       U        0.12728    0.07580    0.03121    1.000
    U8       U        0.25860    0.25558    0.73056    1.000
    U9       U        0.38386    0.42992    0.44810    1.000
    U10      U        0.37248    0.89730    0.37390    1.000
    U11      U        0.07580    0.12728    0.53121    1.000
    U12      U        0.25558    0.25860    0.23056    1.000
    U13      U        0.57008    0.61614    0.05190    1.000
    U14      U        0.10270    0.62752    0.12610    1.000
    U15      U        0.87272    0.92420    0.96879    1.000
    U16      U        0.74140    0.74442    0.26944    1.000
    P1       P        0.46784    0.28492    0.75682    1.000
    P2       P        0.71191    0.86407    0.56484    1.000
    P3       P        0.78771    0.95153    0.77492    1.000
    P4       P        0.55851    0.36135    0.59454    1.000
    P5       P        0.88192    0.03792    0.61701    1.000
    P6       P        0.59869    0.80637    0.46541    1.000
    P7       P        0.71508    0.53216    0.74318    1.000
    P8       P        0.13593    0.28809    0.93516    1.000
    P9       P        0.04847    0.21229    0.72508    1.000
    P10      P        0.63865    0.44149    0.90546    1.000
    P11      P        0.96208    0.11808    0.88299    1.000
    P12      P        0.19363    0.40131    0.03459    1.000
    P13      P        0.53216    0.71508    0.24318    1.000
    P14      P        0.28809    0.13593    0.43516    1.000
    P15      P        0.21229    0.04847    0.22508    1.000
    P16      P        0.44149    0.63865    0.40546    1.000
    P17      P        0.11808    0.96208    0.38299    1.000
    P18      P        0.40131    0.19363    0.53459    1.000
    P19      P        0.28492    0.46784    0.25682    1.000
    P20      P        0.86407    0.71191    0.06484    1.000
    P21      P        0.95153    0.78771    0.27492    1.000
    P22      P        0.36135    0.55851    0.09454    1.000
    P23      P        0.03792    0.88192    0.11701    1.000
    P24      P        0.80637    0.59869    0.96541    1.000
    H1       H        0.57910    0.35330    0.72890    1.000
    H2       H        0.47980    0.42980    0.71170    1.000
    H3       H        0.94030    0.94530    0.73260    1.000
    H4       H        0.87440    0.04700    0.75270    1.000
    H5       H        0.61700    0.94500    0.46550    1.000
    H6       H        0.55630    0.92250    0.54670    1.000
    H7       H        0.64670    0.42090    0.77110    1.000
    H8       H        0.57020    0.52020    0.78830    1.000
    H9       H        0.05470    0.05970    0.76740    1.000
    H10      H        0.95300    0.12560    0.74730    1.000
    H11      H        0.05500    0.38300    0.03450    1.000
    H12      H        0.07750    0.44370    0.95330    1.000
    H13      H        0.42090    0.64670    0.27110    1.000
    H14      H        0.52020    0.57020    0.28830    1.000
    H15      H        0.05970    0.05470    0.26740    1.000
    H16      H        0.12560    0.95300    0.24730    1.000
    H17      H        0.38300    0.05500    0.53450    1.000
    H18      H        0.44370    0.07750    0.45330    1.000
    H19      H        0.35330    0.57910    0.22890    1.000
    H20      H        0.42980    0.47980    0.21170    1.000
    H21      H        0.94530    0.94030    0.23260    1.000
    H22      H        0.04700    0.87440    0.25270    1.000
    H23      H        0.94500    0.61700    0.96550    1.000
    H24      H        0.92250    0.55630    0.04670    1.000
    C1       C        0.52320    0.36580    0.70360    1.000
    C2       C        0.87960    0.99580    0.72440    1.000
    C3       C        0.61360    0.89520    0.50970    1.000
    C4       C        0.63420    0.47680    0.79640    1.000
    C5       C        0.00420    0.12040    0.77560    1.000
    C6       C        0.10480    0.38640    0.99030    1.000
    C7       C        0.47680    0.63420    0.29640    1.000
    C8       C        0.12040    0.00420    0.27560    1.000
    C9       C        0.38640    0.10480    0.49030    1.000
    C10      C        0.36580    0.52320    0.20360    1.000
    C11      C        0.99580    0.87960    0.22440    1.000
    C12      C        0.89520    0.61360    0.00970    1.000
    O1       O        0.81650    0.85010    0.75760    1.000
    O2       O        0.69470    0.01850    0.74420    1.000
    O3       O        0.94650    0.09450    0.59650    1.000
    O4       O        0.69820    0.79960    0.64340    1.000
    O5       O        0.62470    0.41690    0.56700    1.000
    O6       O        0.52960    0.18640    0.73410    1.000
    O7       O        0.61340    0.25780    0.58290    1.000
    O8       O        0.36830    0.32030    0.73230    1.000
    O9       O        0.80430    0.81410    0.51210    1.000
    O10      O        0.46590    0.28550    0.84970    1.000
    O11      O        0.78180    0.95600    0.86710    1.000
    O12      O        0.77980    0.10340    0.60270    1.000
    O13      O        0.47000    0.40520    0.55100    1.000
    O14      O        0.71190    0.95730    0.58210    1.000
    O15      O        0.68360    0.77020    0.40190    1.000
    O16      O        0.59160    0.72760    0.53310    1.000
    O17      O        0.50640    0.85660    0.42690    1.000
    O18      O        0.92120    0.95220    0.57020    1.000
    O19      O        0.14990    0.18350    0.74240    1.000
    O20      O        0.98150    0.30530    0.75580    1.000
    O21      O        0.90550    0.05350    0.90350    1.000
    O22      O        0.20040    0.30180    0.85660    1.000
    O23      O        0.58310    0.37530    0.93300    1.000
    O24      O        0.81360    0.47040    0.76590    1.000
    O25      O        0.74220    0.38660    0.91710    1.000
    O26      O        0.67970    0.63170    0.76770    1.000
    O27      O        0.18590    0.19570    0.98790    1.000
    O28      O        0.71450    0.53410    0.65030    1.000
    O29      O        0.04400    0.21820    0.63290    1.000
    O30      O        0.89660    0.22020    0.89730    1.000
    O31      O        0.59480    0.53000    0.94900    1.000
    O32      O        0.04270    0.28810    0.91790    1.000
    O33      O        0.22980    0.31640    0.09810    1.000
    O34      O        0.27240    0.40840    0.96690    1.000
    O35      O        0.14340    0.49360    0.07310    1.000
    O36      O        0.04780    0.07880    0.92980    1.000
    O37      O        0.18350    0.14990    0.24240    1.000
    O38      O        0.30530    0.98150    0.25580    1.000
    O39      O        0.05350    0.90550    0.40350    1.000
    O40      O        0.30180    0.20040    0.35660    1.000
    O41      O        0.37530    0.58310    0.43300    1.000
    O42      O        0.47040    0.81360    0.26590    1.000
    O43      O        0.38660    0.74220    0.41710    1.000
    O44      O        0.63170    0.67970    0.26770    1.000
    O45      O        0.19570    0.18590    0.48790    1.000
    O46      O        0.53410    0.71450    0.15030    1.000
    O47      O        0.21820    0.04400    0.13290    1.000
    O48      O        0.22020    0.89660    0.39730    1.000
    O49      O        0.53000    0.59480    0.44900    1.000
    O50      O        0.28810    0.04270    0.41790    1.000
    O51      O        0.31640    0.22980    0.59810    1.000
    O52      O        0.40840    0.27240    0.46690    1.000
    O53      O        0.49360    0.14340    0.57310    1.000
    O54      O        0.07880    0.04780    0.42980    1.000
    O55      O        0.85010    0.81650    0.25760    1.000
    O56      O        0.01850    0.69470    0.24420    1.000
    O57      O        0.09450    0.94650    0.09650    1.000
    O58      O        0.79960    0.69820    0.14340    1.000
    O59      O        0.41690    0.62470    0.06700    1.000
    O60      O        0.18640    0.52960    0.23410    1.000
    O61      O        0.25780    0.61340    0.08290    1.000
    O62      O        0.32030    0.36830    0.23230    1.000
    O63      O        0.81410    0.80430    0.01210    1.000
    O64      O        0.28550    0.46590    0.34970    1.000
    O65      O        0.95600    0.78180    0.36710    1.000
    O66      O        0.10340    0.77980    0.10270    1.000
    O67      O        0.40520    0.47000    0.05100    1.000
    O68      O        0.95730    0.71190    0.08210    1.000
    O69      O        0.77020    0.68360    0.90190    1.000
    O70      O        0.72760    0.59160    0.03310    1.000
    O71      O        0.85660    0.50640    0.92690    1.000
    O72      O        0.95220    0.92120    0.07020    1.000
