# CIF file generated by openbabel 3.1.0, see https://openbabel.org
data_I
_chemical_name_common 'image0'
_cell_length_a 26.306
_cell_length_b 49.555
_cell_length_c 10.7101
_cell_angle_alpha 90
_cell_angle_beta 90
_cell_angle_gamma 90
_space_group_name_H-M_alt 'P 1'
_space_group_name_Hall 'P 1'
loop_
    _symmetry_equiv_pos_as_xyz
    x,y,z
loop_
    _atom_site_label
    _atom_site_type_symbol
    _atom_site_fract_x
    _atom_site_fract_y
    _atom_site_fract_z
    _atom_site_occupancy
    Ag1      Ag       0.28576    0.17241    0.01789    1.000
    Ag2      Ag       0.39603    0.25721    0.60510    1.000
    Ag3      Ag       0.51900    0.15621    0.81402    1.000
    P1       P        0.34624    0.21591    0.81282    1.000
    N1       N        0.34885    0.18606    0.87230    1.000
    P2       P        0.39384    0.16579    0.83328    1.000
    N2       N        0.40042    0.22522    0.75130    1.000
    P3       P        0.45472    0.21117    0.78059    1.000
    N3       N        0.44835    0.18083    0.83240    1.000
    N4       N        0.32380    0.23531    0.92360    1.000
    H1       H        0.30260    0.24840    0.90400    1.000
    C1       C        0.33810    0.23154    0.05340    1.000
    H2       H        0.34460    0.24950    0.09090    1.000
    H3       H        0.37020    0.22120    0.05640    1.000
    C2       C        0.29920    0.21717    0.13150    1.000
    H4       H        0.31040    0.20950    0.20790    1.000
    C3       C        0.25170    0.21448    0.10300    1.000
    H5       H        0.23900    0.22190    0.02730    1.000
    H6       H        0.22940    0.20510    0.15760    1.000
    N5       N        0.39290    0.14095    0.93200    1.000
    H7       H        0.39180    0.12430    0.90380    1.000
    C4       C        0.39390    0.14569    0.06810    1.000
    H8       H        0.40540    0.16440    0.08430    1.000
    H9       H        0.41890    0.13330    0.10690    1.000
    C5       C        0.34270    0.14146    0.12840    1.000
    H10      H        0.33770    0.15010    0.20660    1.000
    C6       C        0.30460    0.12752    0.08690    1.000
    H11      H        0.30720    0.11840    0.00920    1.000
    H12      H        0.27410    0.12640    0.13410    1.000
    N6       N        0.49251    0.22579    0.88110    1.000
    H13      H        0.51540    0.23720    0.85300    1.000
    C7       C        0.49020    0.22079    0.01450    1.000
    H14      H        0.46220    0.20790    0.03130    1.000
    H15      H        0.48180    0.23790    0.05740    1.000
    C8       C        0.53890    0.20958    0.07040    1.000
    H16      H        0.53940    0.20680    0.15810    1.000
    C9       C        0.58070    0.20339    0.00710    1.000
    H17      H        0.58180    0.20590    0.91920    1.000
    H18      H        0.60950    0.19650    0.04980    1.000
    N7       N        0.30400    0.22064    0.70260    1.000
    H19      H        0.27540    0.22900    0.71990    1.000
    C10      C        0.31360    0.21104    0.57530    1.000
    H20      H        0.28370    0.20070    0.54660    1.000
    H21      H        0.34300    0.19860    0.57700    1.000
    C11      C        0.32430    0.23327    0.48210    1.000
    H22      H        0.34120    0.22850    0.40680    1.000
    C12      C        0.31160    0.25963    0.49880    1.000
    H23      H        0.29470    0.26510    0.57300    1.000
    H24      H        0.31950    0.27250    0.43620    1.000
    N8       N        0.38510    0.15383    0.69370    1.000
    H25      H        0.41130    0.15340    0.64300    1.000
    C13      C        0.33590    0.14371    0.64640    1.000
    H26      H        0.33810    0.14130    0.55480    1.000
    H27      H        0.30910    0.15720    0.66380    1.000
    C14      C        0.32190    0.11747    0.70580    1.000
    H28      H        0.34570    0.10310    0.70160    1.000
    C15      C        0.27850    0.11316    0.76340    1.000
    H29      H        0.25400    0.12720    0.76910    1.000
    H30      H        0.27170    0.09600    0.79940    1.000
    N9       N        0.48580    0.21506    0.64890    1.000
    H31      H        0.47050    0.22330    0.58660    1.000
    C16      C        0.53820    0.20527    0.63070    1.000
    H32      H        0.55900    0.21120    0.70260    1.000
    H33      H        0.55230    0.21390    0.55490    1.000
    C17      C        0.54340    0.17507    0.61730    1.000
    H34      H        0.51650    0.16560    0.57740    1.000
    C18      C        0.58270    0.16091    0.65720    1.000
    H35      H        0.61030    0.16970    0.69750    1.000
    H36      H        0.58350    0.14190    0.64560    1.000
    Ag4      Ag       0.28576    0.67241    0.51789    1.000
    Ag5      Ag       0.39603    0.75721    0.10510    1.000
    Ag6      Ag       0.51900    0.65621    0.31402    1.000
    P4       P        0.34624    0.71591    0.31282    1.000
    N10      N        0.34885    0.68606    0.37230    1.000
    P5       P        0.39384    0.66579    0.33328    1.000
    N11      N        0.40042    0.72522    0.25130    1.000
    P6       P        0.45472    0.71117    0.28059    1.000
    N12      N        0.44835    0.68083    0.33240    1.000
    N13      N        0.32380    0.73531    0.42360    1.000
    H37      H        0.30260    0.74840    0.40400    1.000
    C19      C        0.33810    0.73154    0.55340    1.000
    H38      H        0.34460    0.74950    0.59090    1.000
    H39      H        0.37020    0.72120    0.55640    1.000
    C20      C        0.29920    0.71717    0.63150    1.000
    H40      H        0.31040    0.70950    0.70790    1.000
    C21      C        0.25170    0.71448    0.60300    1.000
    H41      H        0.23900    0.72190    0.52730    1.000
    H42      H        0.22940    0.70510    0.65760    1.000
    N14      N        0.39290    0.64095    0.43200    1.000
    H43      H        0.39180    0.62430    0.40380    1.000
    C22      C        0.39390    0.64569    0.56810    1.000
    H44      H        0.40540    0.66440    0.58430    1.000
    H45      H        0.41890    0.63330    0.60690    1.000
    C23      C        0.34270    0.64146    0.62840    1.000
    H46      H        0.33770    0.65010    0.70660    1.000
    C24      C        0.30460    0.62752    0.58690    1.000
    H47      H        0.30720    0.61840    0.50920    1.000
    H48      H        0.27410    0.62640    0.63410    1.000
    N15      N        0.49251    0.72579    0.38110    1.000
    H49      H        0.51540    0.73720    0.35300    1.000
    C25      C        0.49020    0.72079    0.51450    1.000
    H50      H        0.46220    0.70790    0.53130    1.000
    H51      H        0.48180    0.73790    0.55740    1.000
    C26      C        0.53890    0.70958    0.57040    1.000
    H52      H        0.53940    0.70680    0.65810    1.000
    C27      C        0.58070    0.70339    0.50710    1.000
    H53      H        0.58180    0.70590    0.41920    1.000
    H54      H        0.60950    0.69650    0.54980    1.000
    N16      N        0.30400    0.72064    0.20260    1.000
    H55      H        0.27540    0.72900    0.21990    1.000
    C28      C        0.31360    0.71104    0.07530    1.000
    H56      H        0.28370    0.70070    0.04660    1.000
    H57      H        0.34300    0.69860    0.07700    1.000
    C29      C        0.32430    0.73327    0.98210    1.000
    H58      H        0.34120    0.72850    0.90680    1.000
    C30      C        0.31160    0.75963    0.99880    1.000
    H59      H        0.29470    0.76510    0.07300    1.000
    H60      H        0.31950    0.77250    0.93620    1.000
    N17      N        0.38510    0.65383    0.19370    1.000
    H61      H        0.41130    0.65340    0.14300    1.000
    C31      C        0.33590    0.64371    0.14640    1.000
    H62      H        0.33810    0.64130    0.05480    1.000
    H63      H        0.30910    0.65720    0.16380    1.000
    C32      C        0.32190    0.61747    0.20580    1.000
    H64      H        0.34570    0.60310    0.20160    1.000
    C33      C        0.27850    0.61316    0.26340    1.000
    H65      H        0.25400    0.62720    0.26910    1.000
    H66      H        0.27170    0.59600    0.29940    1.000
    N18      N        0.48580    0.71506    0.14890    1.000
    H67      H        0.47050    0.72330    0.08660    1.000
    C34      C        0.53820    0.70527    0.13070    1.000
    H68      H        0.55900    0.71120    0.20260    1.000
    H69      H        0.55230    0.71390    0.05490    1.000
    C35      C        0.54340    0.67507    0.11730    1.000
    H70      H        0.51650    0.66560    0.07740    1.000
    C36      C        0.58270    0.66091    0.15720    1.000
    H71      H        0.61030    0.66970    0.19750    1.000
    H72      H        0.58350    0.64190    0.14560    1.000
    Ag7      Ag       0.78576    0.17241    0.51789    1.000
    Ag8      Ag       0.89603    0.25721    0.10510    1.000
    Ag9      Ag       0.01900    0.15621    0.31402    1.000
    P7       P        0.84624    0.21591    0.31282    1.000
    N19      N        0.84885    0.18606    0.37230    1.000
    P8       P        0.89384    0.16579    0.33328    1.000
    N20      N        0.90042    0.22522    0.25130    1.000
    P9       P        0.95472    0.21117    0.28059    1.000
    N21      N        0.94835    0.18083    0.33240    1.000
    N22      N        0.82380    0.23531    0.42360    1.000
    H73      H        0.80260    0.24840    0.40400    1.000
    C37      C        0.83810    0.23154    0.55340    1.000
    H74      H        0.84460    0.24950    0.59090    1.000
    H75      H        0.87020    0.22120    0.55640    1.000
    C38      C        0.79920    0.21717    0.63150    1.000
    H76      H        0.81040    0.20950    0.70790    1.000
    C39      C        0.75170    0.21448    0.60300    1.000
    H77      H        0.73900    0.22190    0.52730    1.000
    H78      H        0.72940    0.20510    0.65760    1.000
    N23      N        0.89290    0.14095    0.43200    1.000
    H79      H        0.89180    0.12430    0.40380    1.000
    C40      C        0.89390    0.14569    0.56810    1.000
    H80      H        0.90540    0.16440    0.58430    1.000
    H81      H        0.91890    0.13330    0.60690    1.000
    C41      C        0.84270    0.14146    0.62840    1.000
    H82      H        0.83770    0.15010    0.70660    1.000
    C42      C        0.80460    0.12752    0.58690    1.000
    H83      H        0.80720    0.11840    0.50920    1.000
    H84      H        0.77410    0.12640    0.63410    1.000
    N24      N        0.99251    0.22579    0.38110    1.000
    H85      H        0.01540    0.23720    0.35300    1.000
    C43      C        0.99020    0.22079    0.51450    1.000
    H86      H        0.96220    0.20790    0.53130    1.000
    H87      H        0.98180    0.23790    0.55740    1.000
    C44      C        0.03890    0.20958    0.57040    1.000
    H88      H        0.03940    0.20680    0.65810    1.000
    C45      C        0.08070    0.20339    0.50710    1.000
    H89      H        0.08180    0.20590    0.41920    1.000
    H90      H        0.10950    0.19650    0.54980    1.000
    N25      N        0.80400    0.22064    0.20260    1.000
    H91      H        0.77540    0.22900    0.21990    1.000
    C46      C        0.81360    0.21104    0.07530    1.000
    H92      H        0.78370    0.20070    0.04660    1.000
    H93      H        0.84300    0.19860    0.07700    1.000
    C47      C        0.82430    0.23327    0.98210    1.000
    H94      H        0.84120    0.22850    0.90680    1.000
    C48      C        0.81160    0.25963    0.99880    1.000
    H95      H        0.79470    0.26510    0.07300    1.000
    H96      H        0.81950    0.27250    0.93620    1.000
    N26      N        0.88510    0.15383    0.19370    1.000
    H97      H        0.91130    0.15340    0.14300    1.000
    C49      C        0.83590    0.14371    0.14640    1.000
    H98      H        0.83810    0.14130    0.05480    1.000
    H99      H        0.80910    0.15720    0.16380    1.000
    C50      C        0.82190    0.11747    0.20580    1.000
    H100     H        0.84570    0.10310    0.20160    1.000
    C51      C        0.77850    0.11316    0.26340    1.000
    H101     H        0.75400    0.12720    0.26910    1.000
    H102     H        0.77170    0.09600    0.29940    1.000
    N27      N        0.98580    0.21506    0.14890    1.000
    H103     H        0.97050    0.22330    0.08660    1.000
    C52      C        0.03820    0.20527    0.13070    1.000
    H104     H        0.05900    0.21120    0.20260    1.000
    H105     H        0.05230    0.21390    0.05490    1.000
    C53      C        0.04340    0.17507    0.11730    1.000
    H106     H        0.01650    0.16560    0.07740    1.000
    C54      C        0.08270    0.16091    0.15720    1.000
    H107     H        0.11030    0.16970    0.19750    1.000
    H108     H        0.08350    0.14190    0.14560    1.000
    Ag10     Ag       0.78576    0.67241    0.01789    1.000
    Ag11     Ag       0.89603    0.75721    0.60510    1.000
    Ag12     Ag       0.01900    0.65621    0.81402    1.000
    P10      P        0.84624    0.71591    0.81282    1.000
    N28      N        0.84885    0.68606    0.87230    1.000
    P11      P        0.89384    0.66579    0.83328    1.000
    N29      N        0.90042    0.72522    0.75130    1.000
    P12      P        0.95472    0.71117    0.78059    1.000
    N30      N        0.94835    0.68083    0.83240    1.000
    N31      N        0.82380    0.73531    0.92360    1.000
    H109     H        0.80260    0.74840    0.90400    1.000
    C55      C        0.83810    0.73154    0.05340    1.000
    H110     H        0.84460    0.74950    0.09090    1.000
    H111     H        0.87020    0.72120    0.05640    1.000
    C56      C        0.79920    0.71717    0.13150    1.000
    H112     H        0.81040    0.70950    0.20790    1.000
    C57      C        0.75170    0.71448    0.10300    1.000
    H113     H        0.73900    0.72190    0.02730    1.000
    H114     H        0.72940    0.70510    0.15760    1.000
    N32      N        0.89290    0.64095    0.93200    1.000
    H115     H        0.89180    0.62430    0.90380    1.000
    C58      C        0.89390    0.64569    0.06810    1.000
    H116     H        0.90540    0.66440    0.08430    1.000
    H117     H        0.91890    0.63330    0.10690    1.000
    C59      C        0.84270    0.64146    0.12840    1.000
    H118     H        0.83770    0.65010    0.20660    1.000
    C60      C        0.80460    0.62752    0.08690    1.000
    H119     H        0.80720    0.61840    0.00920    1.000
    H120     H        0.77410    0.62640    0.13410    1.000
    N33      N        0.99251    0.72579    0.88110    1.000
    H121     H        0.01540    0.73720    0.85300    1.000
    C61      C        0.99020    0.72079    0.01450    1.000
    H122     H        0.96220    0.70790    0.03130    1.000
    H123     H        0.98180    0.73790    0.05740    1.000
    C62      C        0.03890    0.70958    0.07040    1.000
    H124     H        0.03940    0.70680    0.15810    1.000
    C63      C        0.08070    0.70339    0.00710    1.000
    H125     H        0.08180    0.70590    0.91920    1.000
    H126     H        0.10950    0.69650    0.04980    1.000
    N34      N        0.80400    0.72064    0.70260    1.000
    H127     H        0.77540    0.72900    0.71990    1.000
    C64      C        0.81360    0.71104    0.57530    1.000
    H128     H        0.78370    0.70070    0.54660    1.000
    H129     H        0.84300    0.69860    0.57700    1.000
    C65      C        0.82430    0.73327    0.48210    1.000
    H130     H        0.84120    0.72850    0.40680    1.000
    C66      C        0.81160    0.75963    0.49880    1.000
    H131     H        0.79470    0.76510    0.57300    1.000
    H132     H        0.81950    0.77250    0.43620    1.000
    N35      N        0.88510    0.65383    0.69370    1.000
    H133     H        0.91130    0.65340    0.64300    1.000
    C67      C        0.83590    0.64371    0.64640    1.000
    H134     H        0.83810    0.64130    0.55480    1.000
    H135     H        0.80910    0.65720    0.66380    1.000
    C68      C        0.82190    0.61747    0.70580    1.000
    H136     H        0.84570    0.60310    0.70160    1.000
    C69      C        0.77850    0.61316    0.76340    1.000
    H137     H        0.75400    0.62720    0.76910    1.000
    H138     H        0.77170    0.59600    0.79940    1.000
    N36      N        0.98580    0.71506    0.64890    1.000
    H139     H        0.97050    0.72330    0.58660    1.000
    C70      C        0.03820    0.70527    0.63070    1.000
    H140     H        0.05900    0.71120    0.70260    1.000
    H141     H        0.05230    0.71390    0.55490    1.000
    C71      C        0.04340    0.67507    0.61730    1.000
    H142     H        0.01650    0.66560    0.57740    1.000
    C72      C        0.08270    0.66091    0.65720    1.000
    H143     H        0.11030    0.66970    0.69750    1.000
    H144     H        0.08350    0.64190    0.64560    1.000
    Ag13     Ag       0.71424    0.82759    0.01789    1.000
    Ag14     Ag       0.60397    0.74279    0.60510    1.000
    Ag15     Ag       0.48100    0.84379    0.81402    1.000
    P13      P        0.65376    0.78409    0.81282    1.000
    N37      N        0.65115    0.81394    0.87230    1.000
    P14      P        0.60616    0.83421    0.83328    1.000
    N38      N        0.59958    0.77478    0.75130    1.000
    P15      P        0.54528    0.78883    0.78059    1.000
    N39      N        0.55165    0.81917    0.83240    1.000
    N40      N        0.67620    0.76469    0.92360    1.000
    H145     H        0.69740    0.75160    0.90400    1.000
    C73      C        0.66190    0.76846    0.05340    1.000
    H146     H        0.65540    0.75050    0.09090    1.000
    H147     H        0.62980    0.77880    0.05640    1.000
    C74      C        0.70080    0.78283    0.13150    1.000
    H148     H        0.68960    0.79050    0.20790    1.000
    C75      C        0.74830    0.78552    0.10300    1.000
    H149     H        0.76100    0.77810    0.02730    1.000
    H150     H        0.77060    0.79490    0.15760    1.000
    N41      N        0.60710    0.85905    0.93200    1.000
    H151     H        0.60820    0.87570    0.90380    1.000
    C76      C        0.60610    0.85431    0.06810    1.000
    H152     H        0.59460    0.83560    0.08430    1.000
    H153     H        0.58110    0.86670    0.10690    1.000
    C77      C        0.65730    0.85854    0.12840    1.000
    H154     H        0.66230    0.84990    0.20660    1.000
    C78      C        0.69540    0.87248    0.08690    1.000
    H155     H        0.69280    0.88160    0.00920    1.000
    H156     H        0.72590    0.87360    0.13410    1.000
    N42      N        0.50749    0.77421    0.88110    1.000
    H157     H        0.48460    0.76280    0.85300    1.000
    C79      C        0.50980    0.77921    0.01450    1.000
    H158     H        0.53780    0.79210    0.03130    1.000
    H159     H        0.51820    0.76210    0.05740    1.000
    C80      C        0.46110    0.79042    0.07040    1.000
    H160     H        0.46060    0.79320    0.15810    1.000
    C81      C        0.41930    0.79661    0.00710    1.000
    H161     H        0.41820    0.79410    0.91920    1.000
    H162     H        0.39050    0.80350    0.04980    1.000
    N43      N        0.69600    0.77936    0.70260    1.000
    H163     H        0.72460    0.77100    0.71990    1.000
    C82      C        0.68640    0.78896    0.57530    1.000
    H164     H        0.71630    0.79930    0.54660    1.000
    H165     H        0.65700    0.80140    0.57700    1.000
    C83      C        0.67570    0.76673    0.48210    1.000
    H166     H        0.65880    0.77150    0.40680    1.000
    C84      C        0.68840    0.74037    0.49880    1.000
    H167     H        0.70530    0.73490    0.57300    1.000
    H168     H        0.68050    0.72750    0.43620    1.000
    N44      N        0.61490    0.84617    0.69370    1.000
    H169     H        0.58870    0.84660    0.64300    1.000
    C85      C        0.66410    0.85629    0.64640    1.000
    H170     H        0.66190    0.85870    0.55480    1.000
    H171     H        0.69090    0.84280    0.66380    1.000
    C86      C        0.67810    0.88253    0.70580    1.000
    H172     H        0.65430    0.89690    0.70160    1.000
    C87      C        0.72150    0.88684    0.76340    1.000
    H173     H        0.74600    0.87280    0.76910    1.000
    H174     H        0.72830    0.90400    0.79940    1.000
    N45      N        0.51420    0.78494    0.64890    1.000
    H175     H        0.52950    0.77670    0.58660    1.000
    C88      C        0.46180    0.79473    0.63070    1.000
    H176     H        0.44100    0.78880    0.70260    1.000
    H177     H        0.44770    0.78610    0.55490    1.000
    C89      C        0.45660    0.82493    0.61730    1.000
    H178     H        0.48350    0.83440    0.57740    1.000
    C90      C        0.41730    0.83909    0.65720    1.000
    H179     H        0.38970    0.83030    0.69750    1.000
    H180     H        0.41650    0.85810    0.64560    1.000
    Ag16     Ag       0.71424    0.32759    0.51789    1.000
    Ag17     Ag       0.60397    0.24279    0.10510    1.000
    Ag18     Ag       0.48100    0.34379    0.31402    1.000
    P16      P        0.65376    0.28409    0.31282    1.000
    N46      N        0.65115    0.31394    0.37230    1.000
    P17      P        0.60616    0.33421    0.33328    1.000
    N47      N        0.59958    0.27478    0.25130    1.000
    P18      P        0.54528    0.28883    0.28059    1.000
    N48      N        0.55165    0.31917    0.33240    1.000
    N49      N        0.67620    0.26469    0.42360    1.000
    H181     H        0.69740    0.25160    0.40400    1.000
    C91      C        0.66190    0.26846    0.55340    1.000
    H182     H        0.65540    0.25050    0.59090    1.000
    H183     H        0.62980    0.27880    0.55640    1.000
    C92      C        0.70080    0.28283    0.63150    1.000
    H184     H        0.68960    0.29050    0.70790    1.000
    C93      C        0.74830    0.28552    0.60300    1.000
    H185     H        0.76100    0.27810    0.52730    1.000
    H186     H        0.77060    0.29490    0.65760    1.000
    N50      N        0.60710    0.35905    0.43200    1.000
    H187     H        0.60820    0.37570    0.40380    1.000
    C94      C        0.60610    0.35431    0.56810    1.000
    H188     H        0.59460    0.33560    0.58430    1.000
    H189     H        0.58110    0.36670    0.60690    1.000
    C95      C        0.65730    0.35854    0.62840    1.000
    H190     H        0.66230    0.34990    0.70660    1.000
    C96      C        0.69540    0.37248    0.58690    1.000
    H191     H        0.69280    0.38160    0.50920    1.000
    H192     H        0.72590    0.37360    0.63410    1.000
    N51      N        0.50749    0.27421    0.38110    1.000
    H193     H        0.48460    0.26280    0.35300    1.000
    C97      C        0.50980    0.27921    0.51450    1.000
    H194     H        0.53780    0.29210    0.53130    1.000
    H195     H        0.51820    0.26210    0.55740    1.000
    C98      C        0.46110    0.29042    0.57040    1.000
    H196     H        0.46060    0.29320    0.65810    1.000
    C99      C        0.41930    0.29661    0.50710    1.000
    H197     H        0.41820    0.29410    0.41920    1.000
    H198     H        0.39050    0.30350    0.54980    1.000
    N52      N        0.69600    0.27936    0.20260    1.000
    H199     H        0.72460    0.27100    0.21990    1.000
    C100     C        0.68640    0.28896    0.07530    1.000
    H200     H        0.71630    0.29930    0.04660    1.000
    H201     H        0.65700    0.30140    0.07700    1.000
    C101     C        0.67570    0.26673    0.98210    1.000
    H202     H        0.65880    0.27150    0.90680    1.000
    C102     C        0.68840    0.24037    0.99880    1.000
    H203     H        0.70530    0.23490    0.07300    1.000
    H204     H        0.68050    0.22750    0.93620    1.000
    N53      N        0.61490    0.34617    0.19370    1.000
    H205     H        0.58870    0.34660    0.14300    1.000
    C103     C        0.66410    0.35629    0.14640    1.000
    H206     H        0.66190    0.35870    0.05480    1.000
    H207     H        0.69090    0.34280    0.16380    1.000
    C104     C        0.67810    0.38253    0.20580    1.000
    H208     H        0.65430    0.39690    0.20160    1.000
    C105     C        0.72150    0.38684    0.26340    1.000
    H209     H        0.74600    0.37280    0.26910    1.000
    H210     H        0.72830    0.40400    0.29940    1.000
    N54      N        0.51420    0.28494    0.14890    1.000
    H211     H        0.52950    0.27670    0.08660    1.000
    C106     C        0.46180    0.29473    0.13070    1.000
    H212     H        0.44100    0.28880    0.20260    1.000
    H213     H        0.44770    0.28610    0.05490    1.000
    C107     C        0.45660    0.32493    0.11730    1.000
    H214     H        0.48350    0.33440    0.07740    1.000
    C108     C        0.41730    0.33909    0.15720    1.000
    H215     H        0.38970    0.33030    0.19750    1.000
    H216     H        0.41650    0.35810    0.14560    1.000
    Ag19     Ag       0.21424    0.82759    0.51789    1.000
    Ag20     Ag       0.10397    0.74279    0.10510    1.000
    Ag21     Ag       0.98100    0.84379    0.31402    1.000
    P19      P        0.15376    0.78409    0.31282    1.000
    N55      N        0.15115    0.81394    0.37230    1.000
    P20      P        0.10616    0.83421    0.33328    1.000
    N56      N        0.09958    0.77478    0.25130    1.000
    P21      P        0.04528    0.78883    0.28059    1.000
    N57      N        0.05165    0.81917    0.33240    1.000
    N58      N        0.17620    0.76469    0.42360    1.000
    H217     H        0.19740    0.75160    0.40400    1.000
    C109     C        0.16190    0.76846    0.55340    1.000
    H218     H        0.15540    0.75050    0.59090    1.000
    H219     H        0.12980    0.77880    0.55640    1.000
    C110     C        0.20080    0.78283    0.63150    1.000
    H220     H        0.18960    0.79050    0.70790    1.000
    C111     C        0.24830    0.78552    0.60300    1.000
    H221     H        0.26100    0.77810    0.52730    1.000
    H222     H        0.27060    0.79490    0.65760    1.000
    N59      N        0.10710    0.85905    0.43200    1.000
    H223     H        0.10820    0.87570    0.40380    1.000
    C112     C        0.10610    0.85431    0.56810    1.000
    H224     H        0.09460    0.83560    0.58430    1.000
    H225     H        0.08110    0.86670    0.60690    1.000
    C113     C        0.15730    0.85854    0.62840    1.000
    H226     H        0.16230    0.84990    0.70660    1.000
    C114     C        0.19540    0.87248    0.58690    1.000
    H227     H        0.19280    0.88160    0.50920    1.000
    H228     H        0.22590    0.87360    0.63410    1.000
    N60      N        0.00749    0.77421    0.38110    1.000
    H229     H        0.98460    0.76280    0.35300    1.000
    C115     C        0.00980    0.77921    0.51450    1.000
    H230     H        0.03780    0.79210    0.53130    1.000
    H231     H        0.01820    0.76210    0.55740    1.000
    C116     C        0.96110    0.79042    0.57040    1.000
    H232     H        0.96060    0.79320    0.65810    1.000
    C117     C        0.91930    0.79661    0.50710    1.000
    H233     H        0.91820    0.79410    0.41920    1.000
    H234     H        0.89050    0.80350    0.54980    1.000
    N61      N        0.19600    0.77936    0.20260    1.000
    H235     H        0.22460    0.77100    0.21990    1.000
    C118     C        0.18640    0.78896    0.07530    1.000
    H236     H        0.21630    0.79930    0.04660    1.000
    H237     H        0.15700    0.80140    0.07700    1.000
    C119     C        0.17570    0.76673    0.98210    1.000
    H238     H        0.15880    0.77150    0.90680    1.000
    C120     C        0.18840    0.74037    0.99880    1.000
    H239     H        0.20530    0.73490    0.07300    1.000
    H240     H        0.18050    0.72750    0.93620    1.000
    N62      N        0.11490    0.84617    0.19370    1.000
    H241     H        0.08870    0.84660    0.14300    1.000
    C121     C        0.16410    0.85629    0.14640    1.000
    H242     H        0.16190    0.85870    0.05480    1.000
    H243     H        0.19090    0.84280    0.16380    1.000
    C122     C        0.17810    0.88253    0.20580    1.000
    H244     H        0.15430    0.89690    0.20160    1.000
    C123     C        0.22150    0.88684    0.26340    1.000
    H245     H        0.24600    0.87280    0.26910    1.000
    H246     H        0.22830    0.90400    0.29940    1.000
    N63      N        0.01420    0.78494    0.14890    1.000
    H247     H        0.02950    0.77670    0.08660    1.000
    C124     C        0.96180    0.79473    0.13070    1.000
    H248     H        0.94100    0.78880    0.20260    1.000
    H249     H        0.94770    0.78610    0.05490    1.000
    C125     C        0.95660    0.82493    0.11730    1.000
    H250     H        0.98350    0.83440    0.07740    1.000
    C126     C        0.91730    0.83909    0.15720    1.000
    H251     H        0.88970    0.83030    0.19750    1.000
    H252     H        0.91650    0.85810    0.14560    1.000
    Ag22     Ag       0.21424    0.32759    0.01789    1.000
    Ag23     Ag       0.10397    0.24279    0.60510    1.000
    Ag24     Ag       0.98100    0.34379    0.81402    1.000
    P22      P        0.15376    0.28409    0.81282    1.000
    N64      N        0.15115    0.31394    0.87230    1.000
    P23      P        0.10616    0.33421    0.83328    1.000
    N65      N        0.09958    0.27478    0.75130    1.000
    P24      P        0.04528    0.28883    0.78059    1.000
    N66      N        0.05165    0.31917    0.83240    1.000
    N67      N        0.17620    0.26469    0.92360    1.000
    H253     H        0.19740    0.25160    0.90400    1.000
    C127     C        0.16190    0.26846    0.05340    1.000
    H254     H        0.15540    0.25050    0.09090    1.000
    H255     H        0.12980    0.27880    0.05640    1.000
    C128     C        0.20080    0.28283    0.13150    1.000
    H256     H        0.18960    0.29050    0.20790    1.000
    C129     C        0.24830    0.28552    0.10300    1.000
    H257     H        0.26100    0.27810    0.02730    1.000
    H258     H        0.27060    0.29490    0.15760    1.000
    N68      N        0.10710    0.35905    0.93200    1.000
    H259     H        0.10820    0.37570    0.90380    1.000
    C130     C        0.10610    0.35431    0.06810    1.000
    H260     H        0.09460    0.33560    0.08430    1.000
    H261     H        0.08110    0.36670    0.10690    1.000
    C131     C        0.15730    0.35854    0.12840    1.000
    H262     H        0.16230    0.34990    0.20660    1.000
    C132     C        0.19540    0.37248    0.08690    1.000
    H263     H        0.19280    0.38160    0.00920    1.000
    H264     H        0.22590    0.37360    0.13410    1.000
    N69      N        0.00749    0.27421    0.88110    1.000
    H265     H        0.98460    0.26280    0.85300    1.000
    C133     C        0.00980    0.27921    0.01450    1.000
    H266     H        0.03780    0.29210    0.03130    1.000
    H267     H        0.01820    0.26210    0.05740    1.000
    C134     C        0.96110    0.29042    0.07040    1.000
    H268     H        0.96060    0.29320    0.15810    1.000
    C135     C        0.91930    0.29661    0.00710    1.000
    H269     H        0.91820    0.29410    0.91920    1.000
    H270     H        0.89050    0.30350    0.04980    1.000
    N70      N        0.19600    0.27936    0.70260    1.000
    H271     H        0.22460    0.27100    0.71990    1.000
    C136     C        0.18640    0.28896    0.57530    1.000
    H272     H        0.21630    0.29930    0.54660    1.000
    H273     H        0.15700    0.30140    0.57700    1.000
    C137     C        0.17570    0.26673    0.48210    1.000
    H274     H        0.15880    0.27150    0.40680    1.000
    C138     C        0.18840    0.24037    0.49880    1.000
    H275     H        0.20530    0.23490    0.57300    1.000
    H276     H        0.18050    0.22750    0.43620    1.000
    N71      N        0.11490    0.34617    0.69370    1.000
    H277     H        0.08870    0.34660    0.64300    1.000
    C139     C        0.16410    0.35629    0.64640    1.000
    H278     H        0.16190    0.35870    0.55480    1.000
    H279     H        0.19090    0.34280    0.66380    1.000
    C140     C        0.17810    0.38253    0.70580    1.000
    H280     H        0.15430    0.39690    0.70160    1.000
    C141     C        0.22150    0.38684    0.76340    1.000
    H281     H        0.24600    0.37280    0.76910    1.000
    H282     H        0.22830    0.40400    0.79940    1.000
    N72      N        0.01420    0.28494    0.64890    1.000
    H283     H        0.02950    0.27670    0.58660    1.000
    C142     C        0.96180    0.29473    0.63070    1.000
    H284     H        0.94100    0.28880    0.70260    1.000
    H285     H        0.94770    0.28610    0.55490    1.000
    C143     C        0.95660    0.32493    0.61730    1.000
    H286     H        0.98350    0.33440    0.57740    1.000
    C144     C        0.91730    0.33909    0.65720    1.000
    H287     H        0.88970    0.33030    0.69750    1.000
    H288     H        0.91650    0.35810    0.64560    1.000
    Ag25     Ag       0.53576    0.07759    0.26789    1.000
    Ag26     Ag       0.64603    0.99279    0.85510    1.000
    Ag27     Ag       0.76900    0.09379    0.06402    1.000
    P25      P        0.59624    0.03409    0.06282    1.000
    N73      N        0.59885    0.06394    0.12230    1.000
    P26      P        0.64384    0.08421    0.08328    1.000
    N74      N        0.65042    0.02478    0.00130    1.000
    P27      P        0.70472    0.03883    0.03059    1.000
    N75      N        0.69835    0.06917    0.08240    1.000
    N76      N        0.57380    0.01469    0.17360    1.000
    H289     H        0.55260    0.00160    0.15400    1.000
    C145     C        0.58810    0.01846    0.30340    1.000
    H290     H        0.59460    0.00050    0.34090    1.000
    H291     H        0.62020    0.02880    0.30640    1.000
    C146     C        0.54920    0.03283    0.38150    1.000
    H292     H        0.56040    0.04050    0.45790    1.000
    C147     C        0.50170    0.03552    0.35300    1.000
    H293     H        0.48900    0.02810    0.27730    1.000
    H294     H        0.47940    0.04490    0.40760    1.000
    N77      N        0.64290    0.10905    0.18200    1.000
    H295     H        0.64180    0.12570    0.15380    1.000
    C148     C        0.64390    0.10431    0.31810    1.000
    H296     H        0.65540    0.08560    0.33430    1.000
    H297     H        0.66890    0.11670    0.35690    1.000
    C149     C        0.59270    0.10854    0.37840    1.000
    H298     H        0.58770    0.09990    0.45660    1.000
    C150     C        0.55460    0.12248    0.33690    1.000
    H299     H        0.55720    0.13160    0.25920    1.000
    H300     H        0.52410    0.12360    0.38410    1.000
    N78      N        0.74251    0.02421    0.13110    1.000
    H301     H        0.76540    0.01280    0.10300    1.000
    C151     C        0.74020    0.02921    0.26450    1.000
    H302     H        0.71220    0.04210    0.28130    1.000
    H303     H        0.73180    0.01210    0.30740    1.000
    C152     C        0.78890    0.04042    0.32040    1.000
    H304     H        0.78940    0.04320    0.40810    1.000
    C153     C        0.83070    0.04661    0.25710    1.000
    H305     H        0.83180    0.04410    0.16920    1.000
    H306     H        0.85950    0.05350    0.29980    1.000
    N79      N        0.55400    0.02936    0.95260    1.000
    H307     H        0.52540    0.02100    0.96990    1.000
    C154     C        0.56360    0.03896    0.82530    1.000
    H308     H        0.53370    0.04930    0.79660    1.000
    H309     H        0.59300    0.05140    0.82700    1.000
    C155     C        0.57430    0.01673    0.73210    1.000
    H310     H        0.59120    0.02150    0.65680    1.000
    C156     C        0.56160    0.99037    0.74880    1.000
    H311     H        0.54470    0.98490    0.82300    1.000
    H312     H        0.56950    0.97750    0.68620    1.000
    N80      N        0.63510    0.09617    0.94370    1.000
    H313     H        0.66130    0.09660    0.89300    1.000
    C157     C        0.58590    0.10629    0.89640    1.000
    H314     H        0.58810    0.10870    0.80480    1.000
    H315     H        0.55910    0.09280    0.91380    1.000
    C158     C        0.57190    0.13253    0.95580    1.000
    H316     H        0.59570    0.14690    0.95160    1.000
    C159     C        0.52850    0.13684    0.01340    1.000
    H317     H        0.50400    0.12280    0.01910    1.000
    H318     H        0.52170    0.15400    0.04940    1.000
    N81      N        0.73580    0.03494    0.89890    1.000
    H319     H        0.72050    0.02670    0.83660    1.000
    C160     C        0.78820    0.04473    0.88070    1.000
    H320     H        0.80900    0.03880    0.95260    1.000
    H321     H        0.80230    0.03610    0.80490    1.000
    C161     C        0.79340    0.07493    0.86730    1.000
    H322     H        0.76650    0.08440    0.82740    1.000
    C162     C        0.83270    0.08909    0.90720    1.000
    H323     H        0.86030    0.08030    0.94750    1.000
    H324     H        0.83350    0.10810    0.89560    1.000
    Ag28     Ag       0.53576    0.57759    0.76789    1.000
    Ag29     Ag       0.64603    0.49279    0.35510    1.000
    Ag30     Ag       0.76900    0.59379    0.56402    1.000
    P28      P        0.59624    0.53409    0.56282    1.000
    N82      N        0.59885    0.56394    0.62230    1.000
    P29      P        0.64384    0.58421    0.58328    1.000
    N83      N        0.65042    0.52478    0.50130    1.000
    P30      P        0.70472    0.53883    0.53059    1.000
    N84      N        0.69835    0.56917    0.58240    1.000
    N85      N        0.57380    0.51469    0.67360    1.000
    H325     H        0.55260    0.50160    0.65400    1.000
    C163     C        0.58810    0.51846    0.80340    1.000
    H326     H        0.59460    0.50050    0.84090    1.000
    H327     H        0.62020    0.52880    0.80640    1.000
    C164     C        0.54920    0.53283    0.88150    1.000
    H328     H        0.56040    0.54050    0.95790    1.000
    C165     C        0.50170    0.53552    0.85300    1.000
    H329     H        0.48900    0.52810    0.77730    1.000
    H330     H        0.47940    0.54490    0.90760    1.000
    N86      N        0.64290    0.60905    0.68200    1.000
    H331     H        0.64180    0.62570    0.65380    1.000
    C166     C        0.64390    0.60431    0.81810    1.000
    H332     H        0.65540    0.58560    0.83430    1.000
    H333     H        0.66890    0.61670    0.85690    1.000
    C167     C        0.59270    0.60854    0.87840    1.000
    H334     H        0.58770    0.59990    0.95660    1.000
    C168     C        0.55460    0.62248    0.83690    1.000
    H335     H        0.55720    0.63160    0.75920    1.000
    H336     H        0.52410    0.62360    0.88410    1.000
    N87      N        0.74251    0.52421    0.63110    1.000
    H337     H        0.76540    0.51280    0.60300    1.000
    C169     C        0.74020    0.52921    0.76450    1.000
    H338     H        0.71220    0.54210    0.78130    1.000
    H339     H        0.73180    0.51210    0.80740    1.000
    C170     C        0.78890    0.54042    0.82040    1.000
    H340     H        0.78940    0.54320    0.90810    1.000
    C171     C        0.83070    0.54661    0.75710    1.000
    H341     H        0.83180    0.54410    0.66920    1.000
    H342     H        0.85950    0.55350    0.79980    1.000
    N88      N        0.55400    0.52936    0.45260    1.000
    H343     H        0.52540    0.52100    0.46990    1.000
    C172     C        0.56360    0.53896    0.32530    1.000
    H344     H        0.53370    0.54930    0.29660    1.000
    H345     H        0.59300    0.55140    0.32700    1.000
    C173     C        0.57430    0.51673    0.23210    1.000
    H346     H        0.59120    0.52150    0.15680    1.000
    C174     C        0.56160    0.49037    0.24880    1.000
    H347     H        0.54470    0.48490    0.32300    1.000
    H348     H        0.56950    0.47750    0.18620    1.000
    N89      N        0.63510    0.59617    0.44370    1.000
    H349     H        0.66130    0.59660    0.39300    1.000
    C175     C        0.58590    0.60629    0.39640    1.000
    H350     H        0.58810    0.60870    0.30480    1.000
    H351     H        0.55910    0.59280    0.41380    1.000
    C176     C        0.57190    0.63253    0.45580    1.000
    H352     H        0.59570    0.64690    0.45160    1.000
    C177     C        0.52850    0.63684    0.51340    1.000
    H353     H        0.50400    0.62280    0.51910    1.000
    H354     H        0.52170    0.65400    0.54940    1.000
    N90      N        0.73580    0.53494    0.39890    1.000
    H355     H        0.72050    0.52670    0.33660    1.000
    C178     C        0.78820    0.54473    0.38070    1.000
    H356     H        0.80900    0.53880    0.45260    1.000
    H357     H        0.80230    0.53610    0.30490    1.000
    C179     C        0.79340    0.57493    0.36730    1.000
    H358     H        0.76650    0.58440    0.32740    1.000
    C180     C        0.83270    0.58909    0.40720    1.000
    H359     H        0.86030    0.58030    0.44750    1.000
    H360     H        0.83350    0.60810    0.39560    1.000
    Ag31     Ag       0.03576    0.07759    0.76789    1.000
    Ag32     Ag       0.14603    0.99279    0.35510    1.000
    Ag33     Ag       0.26900    0.09379    0.56402    1.000
    P31      P        0.09624    0.03409    0.56282    1.000
    N91      N        0.09885    0.06394    0.62230    1.000
    P32      P        0.14384    0.08421    0.58328    1.000
    N92      N        0.15042    0.02478    0.50130    1.000
    P33      P        0.20472    0.03883    0.53059    1.000
    N93      N        0.19835    0.06917    0.58240    1.000
    N94      N        0.07380    0.01469    0.67360    1.000
    H361     H        0.05260    0.00160    0.65400    1.000
    C181     C        0.08810    0.01846    0.80340    1.000
    H362     H        0.09460    0.00050    0.84090    1.000
    H363     H        0.12020    0.02880    0.80640    1.000
    C182     C        0.04920    0.03283    0.88150    1.000
    H364     H        0.06040    0.04050    0.95790    1.000
    C183     C        0.00170    0.03552    0.85300    1.000
    H365     H        0.98900    0.02810    0.77730    1.000
    H366     H        0.97940    0.04490    0.90760    1.000
    N95      N        0.14290    0.10905    0.68200    1.000
    H367     H        0.14180    0.12570    0.65380    1.000
    C184     C        0.14390    0.10431    0.81810    1.000
    H368     H        0.15540    0.08560    0.83430    1.000
    H369     H        0.16890    0.11670    0.85690    1.000
    C185     C        0.09270    0.10854    0.87840    1.000
    H370     H        0.08770    0.09990    0.95660    1.000
    C186     C        0.05460    0.12248    0.83690    1.000
    H371     H        0.05720    0.13160    0.75920    1.000
    H372     H        0.02410    0.12360    0.88410    1.000
    N96      N        0.24251    0.02421    0.63110    1.000
    H373     H        0.26540    0.01280    0.60300    1.000
    C187     C        0.24020    0.02921    0.76450    1.000
    H374     H        0.21220    0.04210    0.78130    1.000
    H375     H        0.23180    0.01210    0.80740    1.000
    C188     C        0.28890    0.04042    0.82040    1.000
    H376     H        0.28940    0.04320    0.90810    1.000
    C189     C        0.33070    0.04661    0.75710    1.000
    H377     H        0.33180    0.04410    0.66920    1.000
    H378     H        0.35950    0.05350    0.79980    1.000
    N97      N        0.05400    0.02936    0.45260    1.000
    H379     H        0.02540    0.02100    0.46990    1.000
    C190     C        0.06360    0.03896    0.32530    1.000
    H380     H        0.03370    0.04930    0.29660    1.000
    H381     H        0.09300    0.05140    0.32700    1.000
    C191     C        0.07430    0.01673    0.23210    1.000
    H382     H        0.09120    0.02150    0.15680    1.000
    C192     C        0.06160    0.99037    0.24880    1.000
    H383     H        0.04470    0.98490    0.32300    1.000
    H384     H        0.06950    0.97750    0.18620    1.000
    N98      N        0.13510    0.09617    0.44370    1.000
    H385     H        0.16130    0.09660    0.39300    1.000
    C193     C        0.08590    0.10629    0.39640    1.000
    H386     H        0.08810    0.10870    0.30480    1.000
    H387     H        0.05910    0.09280    0.41380    1.000
    C194     C        0.07190    0.13253    0.45580    1.000
    H388     H        0.09570    0.14690    0.45160    1.000
    C195     C        0.02850    0.13684    0.51340    1.000
    H389     H        0.00400    0.12280    0.51910    1.000
    H390     H        0.02170    0.15400    0.54940    1.000
    N99      N        0.23580    0.03494    0.39890    1.000
    H391     H        0.22050    0.02670    0.33660    1.000
    C196     C        0.28820    0.04473    0.38070    1.000
    H392     H        0.30900    0.03880    0.45260    1.000
    H393     H        0.30230    0.03610    0.30490    1.000
    C197     C        0.29340    0.07493    0.36730    1.000
    H394     H        0.26650    0.08440    0.32740    1.000
    C198     C        0.33270    0.08909    0.40720    1.000
    H395     H        0.36030    0.08030    0.44750    1.000
    H396     H        0.33350    0.10810    0.39560    1.000
    Ag34     Ag       0.03576    0.57759    0.26789    1.000
    Ag35     Ag       0.14603    0.49279    0.85510    1.000
    Ag36     Ag       0.26900    0.59379    0.06402    1.000
    P34      P        0.09624    0.53409    0.06282    1.000
    N100     N        0.09885    0.56394    0.12230    1.000
    P35      P        0.14384    0.58421    0.08328    1.000
    N101     N        0.15042    0.52478    0.00130    1.000
    P36      P        0.20472    0.53883    0.03059    1.000
    N102     N        0.19835    0.56917    0.08240    1.000
    N103     N        0.07380    0.51469    0.17360    1.000
    H397     H        0.05260    0.50160    0.15400    1.000
    C199     C        0.08810    0.51846    0.30340    1.000
    H398     H        0.09460    0.50050    0.34090    1.000
    H399     H        0.12020    0.52880    0.30640    1.000
    C200     C        0.04920    0.53283    0.38150    1.000
    H400     H        0.06040    0.54050    0.45790    1.000
    C201     C        0.00170    0.53552    0.35300    1.000
    H401     H        0.98900    0.52810    0.27730    1.000
    H402     H        0.97940    0.54490    0.40760    1.000
    N104     N        0.14290    0.60905    0.18200    1.000
    H403     H        0.14180    0.62570    0.15380    1.000
    C202     C        0.14390    0.60431    0.31810    1.000
    H404     H        0.15540    0.58560    0.33430    1.000
    H405     H        0.16890    0.61670    0.35690    1.000
    C203     C        0.09270    0.60854    0.37840    1.000
    H406     H        0.08770    0.59990    0.45660    1.000
    C204     C        0.05460    0.62248    0.33690    1.000
    H407     H        0.05720    0.63160    0.25920    1.000
    H408     H        0.02410    0.62360    0.38410    1.000
    N105     N        0.24251    0.52421    0.13110    1.000
    H409     H        0.26540    0.51280    0.10300    1.000
    C205     C        0.24020    0.52921    0.26450    1.000
    H410     H        0.21220    0.54210    0.28130    1.000
    H411     H        0.23180    0.51210    0.30740    1.000
    C206     C        0.28890    0.54042    0.32040    1.000
    H412     H        0.28940    0.54320    0.40810    1.000
    C207     C        0.33070    0.54661    0.25710    1.000
    H413     H        0.33180    0.54410    0.16920    1.000
    H414     H        0.35950    0.55350    0.29980    1.000
    N106     N        0.05400    0.52936    0.95260    1.000
    H415     H        0.02540    0.52100    0.96990    1.000
    C208     C        0.06360    0.53896    0.82530    1.000
    H416     H        0.03370    0.54930    0.79660    1.000
    H417     H        0.09300    0.55140    0.82700    1.000
    C209     C        0.07430    0.51673    0.73210    1.000
    H418     H        0.09120    0.52150    0.65680    1.000
    C210     C        0.06160    0.49037    0.74880    1.000
    H419     H        0.04470    0.48490    0.82300    1.000
    H420     H        0.06950    0.47750    0.68620    1.000
    N107     N        0.13510    0.59617    0.94370    1.000
    H421     H        0.16130    0.59660    0.89300    1.000
    C211     C        0.08590    0.60629    0.89640    1.000
    H422     H        0.08810    0.60870    0.80480    1.000
    H423     H        0.05910    0.59280    0.91380    1.000
    C212     C        0.07190    0.63253    0.95580    1.000
    H424     H        0.09570    0.64690    0.95160    1.000
    C213     C        0.02850    0.63684    0.01340    1.000
    H425     H        0.00400    0.62280    0.01910    1.000
    H426     H        0.02170    0.65400    0.04940    1.000
    N108     N        0.23580    0.53494    0.89890    1.000
    H427     H        0.22050    0.52670    0.83660    1.000
    C214     C        0.28820    0.54473    0.88070    1.000
    H428     H        0.30900    0.53880    0.95260    1.000
    H429     H        0.30230    0.53610    0.80490    1.000
    C215     C        0.29340    0.57493    0.86730    1.000
    H430     H        0.26650    0.58440    0.82740    1.000
    C216     C        0.33270    0.58909    0.90720    1.000
    H431     H        0.36030    0.58030    0.94750    1.000
    H432     H        0.33350    0.60810    0.89560    1.000
    Ag37     Ag       0.96424    0.42241    0.26789    1.000
    Ag38     Ag       0.85397    0.50721    0.85510    1.000
    Ag39     Ag       0.73100    0.40621    0.06402    1.000
    P37      P        0.90376    0.46591    0.06282    1.000
    N109     N        0.90115    0.43606    0.12230    1.000
    P38      P        0.85616    0.41579    0.08328    1.000
    N110     N        0.84958    0.47522    0.00130    1.000
    P39      P        0.79528    0.46117    0.03059    1.000
    N111     N        0.80165    0.43083    0.08240    1.000
    N112     N        0.92620    0.48531    0.17360    1.000
    H433     H        0.94740    0.49840    0.15400    1.000
    C217     C        0.91190    0.48154    0.30340    1.000
    H434     H        0.90540    0.49950    0.34090    1.000
    H435     H        0.87980    0.47120    0.30640    1.000
    C218     C        0.95080    0.46717    0.38150    1.000
    H436     H        0.93960    0.45950    0.45790    1.000
    C219     C        0.99830    0.46448    0.35300    1.000
    H437     H        0.01100    0.47190    0.27730    1.000
    H438     H        0.02060    0.45510    0.40760    1.000
    N113     N        0.85710    0.39095    0.18200    1.000
    H439     H        0.85820    0.37430    0.15380    1.000
    C220     C        0.85610    0.39569    0.31810    1.000
    H440     H        0.84460    0.41440    0.33430    1.000
    H441     H        0.83110    0.38330    0.35690    1.000
    C221     C        0.90730    0.39146    0.37840    1.000
    H442     H        0.91230    0.40010    0.45660    1.000
    C222     C        0.94540    0.37752    0.33690    1.000
    H443     H        0.94280    0.36840    0.25920    1.000
    H444     H        0.97590    0.37640    0.38410    1.000
    N114     N        0.75749    0.47579    0.13110    1.000
    H445     H        0.73460    0.48720    0.10300    1.000
    C223     C        0.75980    0.47079    0.26450    1.000
    H446     H        0.78780    0.45790    0.28130    1.000
    H447     H        0.76820    0.48790    0.30740    1.000
    C224     C        0.71110    0.45958    0.32040    1.000
    H448     H        0.71060    0.45680    0.40810    1.000
    C225     C        0.66930    0.45339    0.25710    1.000
    H449     H        0.66820    0.45590    0.16920    1.000
    H450     H        0.64050    0.44650    0.29980    1.000
    N115     N        0.94600    0.47064    0.95260    1.000
    H451     H        0.97460    0.47900    0.96990    1.000
    C226     C        0.93640    0.46104    0.82530    1.000
    H452     H        0.96630    0.45070    0.79660    1.000
    H453     H        0.90700    0.44860    0.82700    1.000
    C227     C        0.92570    0.48327    0.73210    1.000
    H454     H        0.90880    0.47850    0.65680    1.000
    C228     C        0.93840    0.50963    0.74880    1.000
    H455     H        0.95530    0.51510    0.82300    1.000
    H456     H        0.93050    0.52250    0.68620    1.000
    N116     N        0.86490    0.40383    0.94370    1.000
    H457     H        0.83870    0.40340    0.89300    1.000
    C229     C        0.91410    0.39371    0.89640    1.000
    H458     H        0.91190    0.39130    0.80480    1.000
    H459     H        0.94090    0.40720    0.91380    1.000
    C230     C        0.92810    0.36747    0.95580    1.000
    H460     H        0.90430    0.35310    0.95160    1.000
    C231     C        0.97150    0.36316    0.01340    1.000
    H461     H        0.99600    0.37720    0.01910    1.000
    H462     H        0.97830    0.34600    0.04940    1.000
    N117     N        0.76420    0.46506    0.89890    1.000
    H463     H        0.77950    0.47330    0.83660    1.000
    C232     C        0.71180    0.45527    0.88070    1.000
    H464     H        0.69100    0.46120    0.95260    1.000
    H465     H        0.69770    0.46390    0.80490    1.000
    C233     C        0.70660    0.42507    0.86730    1.000
    H466     H        0.73350    0.41560    0.82740    1.000
    C234     C        0.66730    0.41091    0.90720    1.000
    H467     H        0.63970    0.41970    0.94750    1.000
    H468     H        0.66650    0.39190    0.89560    1.000
    Ag40     Ag       0.96424    0.92241    0.76789    1.000
    Ag41     Ag       0.85397    0.00721    0.35510    1.000
    Ag42     Ag       0.73100    0.90621    0.56402    1.000
    P40      P        0.90376    0.96591    0.56282    1.000
    N118     N        0.90115    0.93606    0.62230    1.000
    P41      P        0.85616    0.91579    0.58328    1.000
    N119     N        0.84958    0.97522    0.50130    1.000
    P42      P        0.79528    0.96117    0.53059    1.000
    N120     N        0.80165    0.93083    0.58240    1.000
    N121     N        0.92620    0.98531    0.67360    1.000
    H469     H        0.94740    0.99840    0.65400    1.000
    C235     C        0.91190    0.98154    0.80340    1.000
    H470     H        0.90540    0.99950    0.84090    1.000
    H471     H        0.87980    0.97120    0.80640    1.000
    C236     C        0.95080    0.96717    0.88150    1.000
    H472     H        0.93960    0.95950    0.95790    1.000
    C237     C        0.99830    0.96448    0.85300    1.000
    H473     H        0.01100    0.97190    0.77730    1.000
    H474     H        0.02060    0.95510    0.90760    1.000
    N122     N        0.85710    0.89095    0.68200    1.000
    H475     H        0.85820    0.87430    0.65380    1.000
    C238     C        0.85610    0.89569    0.81810    1.000
    H476     H        0.84460    0.91440    0.83430    1.000
    H477     H        0.83110    0.88330    0.85690    1.000
    C239     C        0.90730    0.89146    0.87840    1.000
    H478     H        0.91230    0.90010    0.95660    1.000
    C240     C        0.94540    0.87752    0.83690    1.000
    H479     H        0.94280    0.86840    0.75920    1.000
    H480     H        0.97590    0.87640    0.88410    1.000
    N123     N        0.75749    0.97579    0.63110    1.000
    H481     H        0.73460    0.98720    0.60300    1.000
    C241     C        0.75980    0.97079    0.76450    1.000
    H482     H        0.78780    0.95790    0.78130    1.000
    H483     H        0.76820    0.98790    0.80740    1.000
    C242     C        0.71110    0.95958    0.82040    1.000
    H484     H        0.71060    0.95680    0.90810    1.000
    C243     C        0.66930    0.95339    0.75710    1.000
    H485     H        0.66820    0.95590    0.66920    1.000
    H486     H        0.64050    0.94650    0.79980    1.000
    N124     N        0.94600    0.97064    0.45260    1.000
    H487     H        0.97460    0.97900    0.46990    1.000
    C244     C        0.93640    0.96104    0.32530    1.000
    H488     H        0.96630    0.95070    0.29660    1.000
    H489     H        0.90700    0.94860    0.32700    1.000
    C245     C        0.92570    0.98327    0.23210    1.000
    H490     H        0.90880    0.97850    0.15680    1.000
    C246     C        0.93840    0.00963    0.24880    1.000
    H491     H        0.95530    0.01510    0.32300    1.000
    H492     H        0.93050    0.02250    0.18620    1.000
    N125     N        0.86490    0.90383    0.44370    1.000
    H493     H        0.83870    0.90340    0.39300    1.000
    C247     C        0.91410    0.89371    0.39640    1.000
    H494     H        0.91190    0.89130    0.30480    1.000
    H495     H        0.94090    0.90720    0.41380    1.000
    C248     C        0.92810    0.86747    0.45580    1.000
    H496     H        0.90430    0.85310    0.45160    1.000
    C249     C        0.97150    0.86316    0.51340    1.000
    H497     H        0.99600    0.87720    0.51910    1.000
    H498     H        0.97830    0.84600    0.54940    1.000
    N126     N        0.76420    0.96506    0.39890    1.000
    H499     H        0.77950    0.97330    0.33660    1.000
    C250     C        0.71180    0.95527    0.38070    1.000
    H500     H        0.69100    0.96120    0.45260    1.000
    H501     H        0.69770    0.96390    0.30490    1.000
    C251     C        0.70660    0.92507    0.36730    1.000
    H502     H        0.73350    0.91560    0.32740    1.000
    C252     C        0.66730    0.91091    0.40720    1.000
    H503     H        0.63970    0.91970    0.44750    1.000
    H504     H        0.66650    0.89190    0.39560    1.000
    Ag43     Ag       0.46424    0.42241    0.76789    1.000
    Ag44     Ag       0.35397    0.50721    0.35510    1.000
    Ag45     Ag       0.23100    0.40621    0.56402    1.000
    P43      P        0.40376    0.46591    0.56282    1.000
    N127     N        0.40115    0.43606    0.62230    1.000
    P44      P        0.35616    0.41579    0.58328    1.000
    N128     N        0.34958    0.47522    0.50130    1.000
    P45      P        0.29528    0.46117    0.53059    1.000
    N129     N        0.30165    0.43083    0.58240    1.000
    N130     N        0.42620    0.48531    0.67360    1.000
    H505     H        0.44740    0.49840    0.65400    1.000
    C253     C        0.41190    0.48154    0.80340    1.000
    H506     H        0.40540    0.49950    0.84090    1.000
    H507     H        0.37980    0.47120    0.80640    1.000
    C254     C        0.45080    0.46717    0.88150    1.000
    H508     H        0.43960    0.45950    0.95790    1.000
    C255     C        0.49830    0.46448    0.85300    1.000
    H509     H        0.51100    0.47190    0.77730    1.000
    H510     H        0.52060    0.45510    0.90760    1.000
    N131     N        0.35710    0.39095    0.68200    1.000
    H511     H        0.35820    0.37430    0.65380    1.000
    C256     C        0.35610    0.39569    0.81810    1.000
    H512     H        0.34460    0.41440    0.83430    1.000
    H513     H        0.33110    0.38330    0.85690    1.000
    C257     C        0.40730    0.39146    0.87840    1.000
    H514     H        0.41230    0.40010    0.95660    1.000
    C258     C        0.44540    0.37752    0.83690    1.000
    H515     H        0.44280    0.36840    0.75920    1.000
    H516     H        0.47590    0.37640    0.88410    1.000
    N132     N        0.25749    0.47579    0.63110    1.000
    H517     H        0.23460    0.48720    0.60300    1.000
    C259     C        0.25980    0.47079    0.76450    1.000
    H518     H        0.28780    0.45790    0.78130    1.000
    H519     H        0.26820    0.48790    0.80740    1.000
    C260     C        0.21110    0.45958    0.82040    1.000
    H520     H        0.21060    0.45680    0.90810    1.000
    C261     C        0.16930    0.45339    0.75710    1.000
    H521     H        0.16820    0.45590    0.66920    1.000
    H522     H        0.14050    0.44650    0.79980    1.000
    N133     N        0.44600    0.47064    0.45260    1.000
    H523     H        0.47460    0.47900    0.46990    1.000
    C262     C        0.43640    0.46104    0.32530    1.000
    H524     H        0.46630    0.45070    0.29660    1.000
    H525     H        0.40700    0.44860    0.32700    1.000
    C263     C        0.42570    0.48327    0.23210    1.000
    H526     H        0.40880    0.47850    0.15680    1.000
    C264     C        0.43840    0.50963    0.24880    1.000
    H527     H        0.45530    0.51510    0.32300    1.000
    H528     H        0.43050    0.52250    0.18620    1.000
    N134     N        0.36490    0.40383    0.44370    1.000
    H529     H        0.33870    0.40340    0.39300    1.000
    C265     C        0.41410    0.39371    0.39640    1.000
    H530     H        0.41190    0.39130    0.30480    1.000
    H531     H        0.44090    0.40720    0.41380    1.000
    C266     C        0.42810    0.36747    0.45580    1.000
    H532     H        0.40430    0.35310    0.45160    1.000
    C267     C        0.47150    0.36316    0.51340    1.000
    H533     H        0.49600    0.37720    0.51910    1.000
    H534     H        0.47830    0.34600    0.54940    1.000
    N135     N        0.26420    0.46506    0.39890    1.000
    H535     H        0.27950    0.47330    0.33660    1.000
    C268     C        0.21180    0.45527    0.38070    1.000
    H536     H        0.19100    0.46120    0.45260    1.000
    H537     H        0.19770    0.46390    0.30490    1.000
    C269     C        0.20660    0.42507    0.36730    1.000
    H538     H        0.23350    0.41560    0.32740    1.000
    C270     C        0.16730    0.41091    0.40720    1.000
    H539     H        0.13970    0.41970    0.44750    1.000
    H540     H        0.16650    0.39190    0.39560    1.000
    Ag46     Ag       0.46424    0.92241    0.26789    1.000
    Ag47     Ag       0.35397    0.00721    0.85510    1.000
    Ag48     Ag       0.23100    0.90621    0.06402    1.000
    P46      P        0.40376    0.96591    0.06282    1.000
    N136     N        0.40115    0.93606    0.12230    1.000
    P47      P        0.35616    0.91579    0.08328    1.000
    N137     N        0.34958    0.97522    0.00130    1.000
    P48      P        0.29528    0.96117    0.03059    1.000
    N138     N        0.30165    0.93083    0.08240    1.000
    N139     N        0.42620    0.98531    0.17360    1.000
    H541     H        0.44740    0.99840    0.15400    1.000
    C271     C        0.41190    0.98154    0.30340    1.000
    H542     H        0.40540    0.99950    0.34090    1.000
    H543     H        0.37980    0.97120    0.30640    1.000
    C272     C        0.45080    0.96717    0.38150    1.000
    H544     H        0.43960    0.95950    0.45790    1.000
    C273     C        0.49830    0.96448    0.35300    1.000
    H545     H        0.51100    0.97190    0.27730    1.000
    H546     H        0.52060    0.95510    0.40760    1.000
    N140     N        0.35710    0.89095    0.18200    1.000
    H547     H        0.35820    0.87430    0.15380    1.000
    C274     C        0.35610    0.89569    0.31810    1.000
    H548     H        0.34460    0.91440    0.33430    1.000
    H549     H        0.33110    0.88330    0.35690    1.000
    C275     C        0.40730    0.89146    0.37840    1.000
    H550     H        0.41230    0.90010    0.45660    1.000
    C276     C        0.44540    0.87752    0.33690    1.000
    H551     H        0.44280    0.86840    0.25920    1.000
    H552     H        0.47590    0.87640    0.38410    1.000
    N141     N        0.25749    0.97579    0.13110    1.000
    H553     H        0.23460    0.98720    0.10300    1.000
    C277     C        0.25980    0.97079    0.26450    1.000
    H554     H        0.28780    0.95790    0.28130    1.000
    H555     H        0.26820    0.98790    0.30740    1.000
    C278     C        0.21110    0.95958    0.32040    1.000
    H556     H        0.21060    0.95680    0.40810    1.000
    C279     C        0.16930    0.95339    0.25710    1.000
    H557     H        0.16820    0.95590    0.16920    1.000
    H558     H        0.14050    0.94650    0.29980    1.000
    N142     N        0.44600    0.97064    0.95260    1.000
    H559     H        0.47460    0.97900    0.96990    1.000
    C280     C        0.43640    0.96104    0.82530    1.000
    H560     H        0.46630    0.95070    0.79660    1.000
    H561     H        0.40700    0.94860    0.82700    1.000
    C281     C        0.42570    0.98327    0.73210    1.000
    H562     H        0.40880    0.97850    0.65680    1.000
    C282     C        0.43840    0.00963    0.74880    1.000
    H563     H        0.45530    0.01510    0.82300    1.000
    H564     H        0.43050    0.02250    0.68620    1.000
    N143     N        0.36490    0.90383    0.94370    1.000
    H565     H        0.33870    0.90340    0.89300    1.000
    C283     C        0.41410    0.89371    0.89640    1.000
    H566     H        0.41190    0.89130    0.80480    1.000
    H567     H        0.44090    0.90720    0.91380    1.000
    C284     C        0.42810    0.86747    0.95580    1.000
    H568     H        0.40430    0.85310    0.95160    1.000
    C285     C        0.47150    0.86316    0.01340    1.000
    H569     H        0.49600    0.87720    0.01910    1.000
    H570     H        0.47830    0.84600    0.04940    1.000
    N144     N        0.26420    0.96506    0.89890    1.000
    H571     H        0.27950    0.97330    0.83660    1.000
    C286     C        0.21180    0.95527    0.88070    1.000
    H572     H        0.19100    0.96120    0.95260    1.000
    H573     H        0.19770    0.96390    0.80490    1.000
    C287     C        0.20660    0.92507    0.86730    1.000
    H574     H        0.23350    0.91560    0.82740    1.000
    C288     C        0.16730    0.91091    0.90720    1.000
    H575     H        0.13970    0.91970    0.94750    1.000
    H576     H        0.16650    0.89190    0.89560    1.000
