# CIF file generated by openbabel 3.1.0, see https://openbabel.org
data_I
_chemical_name_common 'image0'
_cell_length_a 13.1642
_cell_length_b 13.1642
_cell_length_c 13.1642
_cell_angle_alpha 90
_cell_angle_beta 90
_cell_angle_gamma 90
_space_group_name_H-M_alt 'P 1'
_space_group_name_Hall 'P 1'
loop_
    _symmetry_equiv_pos_as_xyz
    x,y,z
loop_
    _atom_site_label
    _atom_site_type_symbol
    _atom_site_fract_x
    _atom_site_fract_y
    _atom_site_fract_z
    _atom_site_occupancy
    N1       N        0.43840    0.45750    0.13530    1.000
    N2       N        0.48220    0.46440    0.21440    1.000
    N3       N        0.51850    0.46830    0.29220    1.000
    N4       N        0.06160    0.54250    0.63530    1.000
    N5       N        0.01780    0.53560    0.71440    1.000
    N6       N        0.98150    0.53170    0.79220    1.000
    N7       N        0.56160    0.95750    0.36470    1.000
    N8       N        0.51780    0.96440    0.28560    1.000
    N9       N        0.48150    0.96830    0.20780    1.000
    N10      N        0.93840    0.04250    0.86470    1.000
    N11      N        0.98220    0.03560    0.78560    1.000
    N12      N        0.01850    0.03170    0.70780    1.000
    N13      N        0.13530    0.43840    0.45750    1.000
    N14      N        0.21440    0.48220    0.46440    1.000
    N15      N        0.29220    0.51850    0.46830    1.000
    N16      N        0.63530    0.06160    0.54250    1.000
    N17      N        0.71440    0.01780    0.53560    1.000
    N18      N        0.79220    0.98150    0.53170    1.000
    N19      N        0.36470    0.56160    0.95750    1.000
    N20      N        0.28560    0.51780    0.96440    1.000
    N21      N        0.20780    0.48150    0.96830    1.000
    N22      N        0.86470    0.93840    0.04250    1.000
    N23      N        0.78560    0.98220    0.03560    1.000
    N24      N        0.70780    0.01850    0.03170    1.000
    N25      N        0.45750    0.13530    0.43840    1.000
    N26      N        0.46440    0.21440    0.48220    1.000
    N27      N        0.46830    0.29220    0.51850    1.000
    N28      N        0.54250    0.63530    0.06160    1.000
    N29      N        0.53560    0.71440    0.01780    1.000
    N30      N        0.53170    0.79220    0.98150    1.000
    N31      N        0.95750    0.36470    0.56160    1.000
    N32      N        0.96440    0.28560    0.51780    1.000
    N33      N        0.96830    0.20780    0.48150    1.000
    N34      N        0.04250    0.86470    0.93840    1.000
    N35      N        0.03560    0.78560    0.98220    1.000
    N36      N        0.03170    0.70780    0.01850    1.000
    N37      N        0.56160    0.54250    0.86470    1.000
    N38      N        0.51780    0.53560    0.78560    1.000
    N39      N        0.48150    0.53170    0.70780    1.000
    N40      N        0.93840    0.45750    0.36470    1.000
    N41      N        0.98220    0.46440    0.28560    1.000
    N42      N        0.01850    0.46830    0.20780    1.000
    N43      N        0.43840    0.04250    0.63530    1.000
    N44      N        0.48220    0.03560    0.71440    1.000
    N45      N        0.51850    0.03170    0.79220    1.000
    N46      N        0.06160    0.95750    0.13530    1.000
    N47      N        0.01780    0.96440    0.21440    1.000
    N48      N        0.98150    0.96830    0.29220    1.000
    N49      N        0.86470    0.56160    0.54250    1.000
    N50      N        0.78560    0.51780    0.53560    1.000
    N51      N        0.70780    0.48150    0.53170    1.000
    N52      N        0.36470    0.93840    0.45750    1.000
    N53      N        0.28560    0.98220    0.46440    1.000
    N54      N        0.20780    0.01850    0.46830    1.000
    N55      N        0.63530    0.43840    0.04250    1.000
    N56      N        0.71440    0.48220    0.03560    1.000
    N57      N        0.79220    0.51850    0.03170    1.000
    N58      N        0.13530    0.06160    0.95750    1.000
    N59      N        0.21440    0.01780    0.96440    1.000
    N60      N        0.29220    0.98150    0.96830    1.000
    N61      N        0.54250    0.86470    0.56160    1.000
    N62      N        0.53560    0.78560    0.51780    1.000
    N63      N        0.53170    0.70780    0.48150    1.000
    N64      N        0.45750    0.36470    0.93840    1.000
    N65      N        0.46440    0.28560    0.98220    1.000
    N66      N        0.46830    0.20780    0.01850    1.000
    N67      N        0.04250    0.63530    0.43840    1.000
    N68      N        0.03560    0.71440    0.48220    1.000
    N69      N        0.03170    0.79220    0.51850    1.000
    N70      N        0.95750    0.13530    0.06160    1.000
    N71      N        0.96440    0.21440    0.01780    1.000
    N72      N        0.96830    0.29220    0.98150    1.000
    Cr1      Cr       0.50000    0.50000    0.00000    1.000
    Cr2      Cr       0.00000    0.50000    0.50000    1.000
    Cr3      Cr       0.50000    0.00000    0.50000    1.000
    Cr4      Cr       0.00000    0.00000    0.00000    1.000
    K1       K        0.50000    0.50000    0.50000    1.000
    K2       K        0.00000    0.50000    0.00000    1.000
    K3       K        0.50000    0.00000    0.00000    1.000
    K4       K        0.00000    0.00000    0.50000    1.000
