# CIF file generated by openbabel 3.1.0, see https://openbabel.org
data_I
_chemical_name_common 'image0'
_cell_length_a 16.833
_cell_length_b 29.227
_cell_length_c 53.531
_cell_angle_alpha 90
_cell_angle_beta 96.338
_cell_angle_gamma 90
_space_group_name_H-M_alt 'P 1'
_space_group_name_Hall 'P 1'
loop_
    _symmetry_equiv_pos_as_xyz
    x,y,z
loop_
    _atom_site_label
    _atom_site_type_symbol
    _atom_site_fract_x
    _atom_site_fract_y
    _atom_site_fract_z
    _atom_site_occupancy
    C1       C        0.66580    0.09210    0.15390    1.000
    C2       C        0.62430    0.09190    0.18070    1.000
    C3       C        0.54140    0.10140    0.17636    1.000
    H1       H        0.51740    0.10890    0.16040    1.000
    C4       C        0.49730    0.09890    0.19680    1.000
    H2       H        0.44290    0.10540    0.19470    1.000
    C5       C        0.53460    0.08680    0.22034    1.000
    C6       C        0.61590    0.07710    0.22344    1.000
    H3       H        0.64080    0.06900    0.23920    1.000
    C7       C        0.66000    0.07950    0.20299    1.000
    H4       H        0.71440    0.07300    0.20510    1.000
    C8       C        0.72140    0.01860    0.09630    1.000
    C9       C        0.67490    0.00910    0.07130    1.000
    C10      C        0.64530    0.04550    0.05570    1.000
    H5       H        0.66110    0.07530    0.05980    1.000
    C11      C        0.59260    0.03730    0.03431    1.000
    H6       H        0.57420    0.06140    0.02390    1.000
    C12      C        0.56740    0.99290    0.02841    1.000
    C13      C        0.59490    0.95680    0.04390    1.000
    H7       H        0.57800    0.92710    0.04000    1.000
    C14      C        0.64760    0.96500    0.06529    1.000
    H8       H        0.66600    0.94080    0.07570    1.000
    C15      C        0.13270    0.93010    0.10120    1.000
    C16      C        0.10500    0.94660    0.07500    1.000
    C17      C        0.12440    0.99260    0.07126    1.000
    H9       H        0.15460    0.00900    0.08380    1.000
    C18      C        0.09770    0.01320    0.04846    1.000
    H10      H        0.10910    0.04380    0.04580    1.000
    C19      C        0.05390    0.98800    0.02968    1.000
    C20      C        0.03680    0.94220    0.03370    1.000
    H11      H        0.00750    0.92530    0.02110    1.000
    C21      C        0.06350    0.92160    0.05650    1.000
    H12      H        0.05210    0.89100    0.05920    1.000
    C22      C        0.75930    0.95190    0.18880    1.000
    C23      C        0.95100    0.90780    0.12937    1.000
    H13      H        0.95910    0.90650    0.11250    1.000
    C24      C        0.87900    0.92440    0.13620    1.000
    H14      H        0.83950    0.93440    0.12390    1.000
    C25      C        0.86630    0.92610    0.16140    1.000
    C26      C        0.92540    0.91120    0.17977    1.000
    H15      H        0.91690    0.91230    0.19660    1.000
    C27      C        0.99730    0.89460    0.17294    1.000
    H16      H        0.03690    0.88460    0.18520    1.000
    C28      C        0.17540    0.99350    0.18890    1.000
    C29      C        0.95090    0.03914    0.12634    1.000
    H17      H        0.93550    0.04510    0.10940    1.000
    C30      C        0.02660    0.02164    0.13385    1.000
    H18      H        0.06160    0.01570    0.12200    1.000
    C31      C        0.05000    0.01305    0.15914    1.000
    C32      C        0.99770    0.02194    0.17691    1.000
    H19      H        0.01330    0.01620    0.19380    1.000
    C33      C        0.92200    0.03943    0.16940    1.000
    H20      H        0.88700    0.04540    0.18130    1.000
    C34      C        0.25580    0.98220    0.18860    1.000
    C35      C        0.29120    0.96788    0.16768    1.000
    H21      H        0.25970    0.96160    0.15270    1.000
    C36      C        0.37370    0.96299    0.16915    1.000
    H22      H        0.39740    0.95340    0.15520    1.000
    C37      C        0.42090    0.97243    0.19155    1.000
    C38      C        0.38540    0.98675    0.21247    1.000
    H23      H        0.41700    0.99310    0.22750    1.000
    C39      C        0.30290    0.99164    0.21099    1.000
    H24      H        0.27920    0.00120    0.22500    1.000
    C40      C        0.51440    0.96999    0.19121    1.000
    C41      C        0.54600    0.97865    0.16878    1.000
    H25      H        0.51290    0.98860    0.15480    1.000
    C42      C        0.62720    0.97240    0.16726    1.000
    H26      H        0.64840    0.97820    0.15230    1.000
    C43      C        0.67670    0.95749    0.18818    1.000
    C44      C        0.64510    0.94884    0.21062    1.000
    H27      H        0.67820    0.93890    0.22460    1.000
    C45      C        0.56390    0.95509    0.21213    1.000
    H28      H        0.54270    0.94930    0.22710    1.000
    C46      C        0.79680    0.17528    0.14200    1.000
    H29      H        0.76730    0.16560    0.15470    1.000
    C47      C        0.80900    0.22172    0.13830    1.000
    H30      H        0.78770    0.24310    0.14860    1.000
    C48      C        0.85300    0.23618    0.11927    1.000
    C49      C        0.88480    0.20421    0.10393    1.000
    H31      H        0.91430    0.21390    0.09120    1.000
    C50      C        0.87270    0.15777    0.10763    1.000
    H32      H        0.89400    0.13640    0.09740    1.000
    C51      C        0.84070    0.37810    0.10091    1.000
    H33      H        0.79240    0.36240    0.09950    1.000
    C52      C        0.91240    0.35406    0.10384    1.000
    C53      C        0.98460    0.37755    0.10597    1.000
    H34      H        0.03260    0.36150    0.10790    1.000
    C54      C        0.98520    0.42508    0.10516    1.000
    H35      H        0.03350    0.44080    0.10660    1.000
    C55      C        0.91350    0.44912    0.10223    1.000
    C56      C        0.84130    0.42563    0.10010    1.000
    H36      H        0.79330    0.44170    0.09810    1.000
    C57      C        0.92880    0.30170    0.10490    1.000
    C58      C        0.85760    0.57320    0.11113    1.000
    H37      H        0.81460    0.58950    0.11610    1.000
    C59      C        0.85420    0.52580    0.10946    1.000
    H38      H        0.80880    0.51030    0.11330    1.000
    C60      C        0.91860    0.50150    0.10207    1.000
    C61      C        0.98650    0.52460    0.09635    1.000
    H39      H        0.02960    0.50830    0.09140    1.000
    C62      C        0.98990    0.57200    0.09803    1.000
    H40      H        0.03530    0.58750    0.09420    1.000
    C63      C        0.92550    0.59630    0.10542    1.000
    C64      C        0.92620    0.64630    0.10130    1.000
    N1       N        0.82680    0.14240    0.12620    1.000
    N2       N        0.86420    0.28300    0.11750    1.000
    H41      H        0.83220    0.30130    0.12400    1.000
    N3       N        0.48220    0.08670    0.24080    1.000
    N4       N        0.52530    0.98180    0.00360    1.000
    N5       N        0.89880    0.04770    0.14390    1.000
    N6       N        0.12880    0.99400    0.16520    1.000
    H42      H        0.14990    0.98140    0.15290    1.000
    N7       N        0.79970    0.94190    0.16574    1.000
    H43      H        0.77000    0.94870    0.15210    1.000
    N8       N        0.00980    0.89350    0.14733    1.000
    N9       N        0.02030    0.00940    0.00600    1.000
    N10      N        0.00280    0.66111    0.11362    1.000
    H44      H        0.03770    0.64030    0.11800    1.000
    C65      C        0.11520    0.76216    0.14244    1.000
    H45      H        0.15820    0.76770    0.15450    1.000
    C66      C        0.08980    0.71756    0.13732    1.000
    H46      H        0.11570    0.69330    0.14600    1.000
    C67      C        0.02560    0.70926    0.11924    1.000
    C68      C        0.98680    0.74557    0.10629    1.000
    H47      H        0.94390    0.74000    0.09420    1.000
    C69      C        0.01230    0.79017    0.11142    1.000
    H48      H        0.98630    0.81450    0.10280    1.000
    N11      N        0.07640    0.79846    0.12949    1.000
    O1       O        0.82330    0.94630    0.20860    1.000
    O2       O        0.14610    0.00240    0.20749    1.000
    O3       O        0.72790    0.99100    0.11460    1.000
    O4       O        0.75790    0.05970    0.09821    1.000
    O5       O        0.64310    0.10880    0.13710    1.000
    O6       O        0.73080    0.07770    0.15966    1.000
    O7       O        0.11140    0.88750    0.10238    1.000
    O8       O        0.16040    0.95250    0.11884    1.000
    O9       O        0.98730    0.28560    0.09560    1.000
    O10      O        0.84470    0.66750    0.10490    1.000
    Zn1      Zn       0.10967    0.86395    0.13635    1.000
    Zn2      Zn       0.79517    0.07760    0.13160    1.000
    C70      C        0.33420    0.09210    0.34610    1.000
    C71      C        0.37570    0.09190    0.31930    1.000
    C72      C        0.45860    0.10140    0.32364    1.000
    H49      H        0.48260    0.10890    0.33960    1.000
    C73      C        0.50270    0.09890    0.30320    1.000
    H50      H        0.55710    0.10540    0.30530    1.000
    C74      C        0.46540    0.08680    0.27966    1.000
    C75      C        0.38410    0.07710    0.27656    1.000
    H51      H        0.35920    0.06900    0.26080    1.000
    C76      C        0.34000    0.07950    0.29701    1.000
    H52      H        0.28560    0.07300    0.29490    1.000
    C77      C        0.27860    0.01860    0.40370    1.000
    C78      C        0.32510    0.00910    0.42870    1.000
    C79      C        0.35470    0.04550    0.44430    1.000
    H53      H        0.33890    0.07530    0.44020    1.000
    C80      C        0.40740    0.03730    0.46569    1.000
    H54      H        0.42580    0.06140    0.47610    1.000
    C81      C        0.43260    0.99290    0.47159    1.000
    C82      C        0.40510    0.95680    0.45610    1.000
    H55      H        0.42200    0.92710    0.46000    1.000
    C83      C        0.35240    0.96500    0.43471    1.000
    H56      H        0.33400    0.94080    0.42430    1.000
    C84      C        0.86730    0.93010    0.39880    1.000
    C85      C        0.89500    0.94660    0.42500    1.000
    C86      C        0.87560    0.99260    0.42874    1.000
    H57      H        0.84540    0.00900    0.41620    1.000
    C87      C        0.90230    0.01320    0.45154    1.000
    H58      H        0.89090    0.04380    0.45420    1.000
    C88      C        0.94610    0.98800    0.47032    1.000
    C89      C        0.96320    0.94220    0.46630    1.000
    H59      H        0.99250    0.92530    0.47890    1.000
    C90      C        0.93650    0.92160    0.44350    1.000
    H60      H        0.94790    0.89100    0.44080    1.000
    C91      C        0.24070    0.95190    0.31120    1.000
    C92      C        0.04900    0.90780    0.37063    1.000
    H61      H        0.04090    0.90650    0.38750    1.000
    C93      C        0.12100    0.92440    0.36380    1.000
    H62      H        0.16050    0.93440    0.37610    1.000
    C94      C        0.13370    0.92610    0.33860    1.000
    C95      C        0.07460    0.91120    0.32023    1.000
    H63      H        0.08310    0.91230    0.30340    1.000
    C96      C        0.00270    0.89460    0.32706    1.000
    H64      H        0.96310    0.88460    0.31480    1.000
    C97      C        0.82460    0.99350    0.31110    1.000
    C98      C        0.04910    0.03914    0.37366    1.000
    H65      H        0.06450    0.04510    0.39060    1.000
    C99      C        0.97340    0.02164    0.36615    1.000
    H66      H        0.93840    0.01570    0.37800    1.000
    C100     C        0.95000    0.01305    0.34086    1.000
    C101     C        0.00230    0.02194    0.32309    1.000
    H67      H        0.98670    0.01620    0.30620    1.000
    C102     C        0.07800    0.03943    0.33060    1.000
    H68      H        0.11300    0.04540    0.31870    1.000
    C103     C        0.74420    0.98220    0.31140    1.000
    C104     C        0.70880    0.96788    0.33232    1.000
    H69      H        0.74030    0.96160    0.34730    1.000
    C105     C        0.62630    0.96299    0.33085    1.000
    H70      H        0.60260    0.95340    0.34480    1.000
    C106     C        0.57910    0.97243    0.30845    1.000
    C107     C        0.61460    0.98675    0.28753    1.000
    H71      H        0.58300    0.99310    0.27250    1.000
    C108     C        0.69710    0.99164    0.28901    1.000
    H72      H        0.72080    0.00120    0.27500    1.000
    C109     C        0.48560    0.96999    0.30879    1.000
    C110     C        0.45400    0.97865    0.33122    1.000
    H73      H        0.48710    0.98860    0.34520    1.000
    C111     C        0.37280    0.97240    0.33274    1.000
    H74      H        0.35160    0.97820    0.34770    1.000
    C112     C        0.32330    0.95749    0.31182    1.000
    C113     C        0.35490    0.94884    0.28938    1.000
    H75      H        0.32180    0.93890    0.27540    1.000
    C114     C        0.43610    0.95509    0.28787    1.000
    H76      H        0.45730    0.94930    0.27290    1.000
    C115     C        0.20320    0.17528    0.35800    1.000
    H77      H        0.23270    0.16560    0.34530    1.000
    C116     C        0.19100    0.22172    0.36170    1.000
    H78      H        0.21230    0.24310    0.35140    1.000
    C117     C        0.14700    0.23618    0.38073    1.000
    C118     C        0.11520    0.20421    0.39607    1.000
    H79      H        0.08570    0.21390    0.40880    1.000
    C119     C        0.12730    0.15777    0.39237    1.000
    H80      H        0.10600    0.13640    0.40260    1.000
    C120     C        0.15930    0.37810    0.39909    1.000
    H81      H        0.20760    0.36240    0.40050    1.000
    C121     C        0.08760    0.35406    0.39616    1.000
    C122     C        0.01540    0.37755    0.39403    1.000
    H82      H        0.96740    0.36150    0.39210    1.000
    C123     C        0.01480    0.42508    0.39484    1.000
    H83      H        0.96650    0.44080    0.39340    1.000
    C124     C        0.08650    0.44912    0.39777    1.000
    C125     C        0.15870    0.42563    0.39990    1.000
    H84      H        0.20670    0.44170    0.40190    1.000
    C126     C        0.07120    0.30170    0.39510    1.000
    C127     C        0.14240    0.57320    0.38887    1.000
    H85      H        0.18540    0.58950    0.38390    1.000
    C128     C        0.14580    0.52580    0.39054    1.000
    H86      H        0.19120    0.51030    0.38670    1.000
    C129     C        0.08140    0.50150    0.39793    1.000
    C130     C        0.01350    0.52460    0.40365    1.000
    H87      H        0.97040    0.50830    0.40860    1.000
    C131     C        0.01010    0.57200    0.40197    1.000
    H88      H        0.96470    0.58750    0.40580    1.000
    C132     C        0.07450    0.59630    0.39458    1.000
    C133     C        0.07380    0.64630    0.39870    1.000
    N12      N        0.17320    0.14240    0.37380    1.000
    N13      N        0.13580    0.28300    0.38250    1.000
    H89      H        0.16780    0.30130    0.37600    1.000
    N14      N        0.51780    0.08670    0.25920    1.000
    N15      N        0.47470    0.98180    0.49640    1.000
    N16      N        0.10120    0.04770    0.35610    1.000
    N17      N        0.87120    0.99400    0.33480    1.000
    H90      H        0.85010    0.98140    0.34710    1.000
    N18      N        0.20030    0.94190    0.33426    1.000
    H91      H        0.23000    0.94870    0.34790    1.000
    N19      N        0.99020    0.89350    0.35267    1.000
    N20      N        0.97970    0.00940    0.49400    1.000
    N21      N        0.99720    0.66111    0.38638    1.000
    H92      H        0.96230    0.64030    0.38200    1.000
    C134     C        0.88480    0.76216    0.35756    1.000
    H93      H        0.84180    0.76770    0.34550    1.000
    C135     C        0.91020    0.71756    0.36268    1.000
    H94      H        0.88430    0.69330    0.35400    1.000
    C136     C        0.97440    0.70926    0.38076    1.000
    C137     C        0.01320    0.74557    0.39371    1.000
    H95      H        0.05610    0.74000    0.40580    1.000
    C138     C        0.98770    0.79017    0.38858    1.000
    H96      H        0.01370    0.81450    0.39720    1.000
    N22      N        0.92360    0.79846    0.37051    1.000
    O11      O        0.17670    0.94630    0.29140    1.000
    O12      O        0.85390    0.00240    0.29251    1.000
    O13      O        0.27210    0.99100    0.38540    1.000
    O14      O        0.24210    0.05970    0.40179    1.000
    O15      O        0.35690    0.10880    0.36290    1.000
    O16      O        0.26920    0.07770    0.34034    1.000
    O17      O        0.88860    0.88750    0.39762    1.000
    O18      O        0.83960    0.95250    0.38116    1.000
    O19      O        0.01270    0.28560    0.40440    1.000
    O20      O        0.15530    0.66750    0.39510    1.000
    Zn3      Zn       0.89033    0.86395    0.36365    1.000
    Zn4      Zn       0.20483    0.07760    0.36840    1.000
    C139     C        0.33420    0.90790    0.84610    1.000
    C140     C        0.37570    0.90810    0.81930    1.000
    C141     C        0.45860    0.89860    0.82364    1.000
    H97      H        0.48260    0.89110    0.83960    1.000
    C142     C        0.50270    0.90110    0.80320    1.000
    H98      H        0.55710    0.89460    0.80530    1.000
    C143     C        0.46540    0.91320    0.77966    1.000
    C144     C        0.38410    0.92290    0.77656    1.000
    H99      H        0.35920    0.93100    0.76080    1.000
    C145     C        0.34000    0.92050    0.79701    1.000
    H100     H        0.28560    0.92700    0.79490    1.000
    C146     C        0.27860    0.98140    0.90370    1.000
    C147     C        0.32510    0.99090    0.92870    1.000
    C148     C        0.35470    0.95450    0.94430    1.000
    H101     H        0.33890    0.92470    0.94020    1.000
    C149     C        0.40740    0.96270    0.96569    1.000
    H102     H        0.42580    0.93860    0.97610    1.000
    C150     C        0.43260    0.00710    0.97159    1.000
    C151     C        0.40510    0.04320    0.95610    1.000
    H103     H        0.42200    0.07290    0.96000    1.000
    C152     C        0.35240    0.03500    0.93471    1.000
    H104     H        0.33400    0.05920    0.92430    1.000
    C153     C        0.86730    0.06990    0.89880    1.000
    C154     C        0.89500    0.05340    0.92500    1.000
    C155     C        0.87560    0.00740    0.92874    1.000
    H105     H        0.84540    0.99100    0.91620    1.000
    C156     C        0.90230    0.98680    0.95154    1.000
    H106     H        0.89090    0.95620    0.95420    1.000
    C157     C        0.94610    0.01200    0.97032    1.000
    C158     C        0.96320    0.05780    0.96630    1.000
    H107     H        0.99250    0.07470    0.97890    1.000
    C159     C        0.93650    0.07840    0.94350    1.000
    H108     H        0.94790    0.10900    0.94080    1.000
    C160     C        0.24070    0.04810    0.81120    1.000
    C161     C        0.04900    0.09220    0.87063    1.000
    H109     H        0.04090    0.09350    0.88750    1.000
    C162     C        0.12100    0.07560    0.86380    1.000
    H110     H        0.16050    0.06560    0.87610    1.000
    C163     C        0.13370    0.07390    0.83860    1.000
    C164     C        0.07460    0.08880    0.82023    1.000
    H111     H        0.08310    0.08770    0.80340    1.000
    C165     C        0.00270    0.10540    0.82706    1.000
    H112     H        0.96310    0.11540    0.81480    1.000
    C166     C        0.82460    0.00650    0.81110    1.000
    C167     C        0.04910    0.96086    0.87366    1.000
    H113     H        0.06450    0.95490    0.89060    1.000
    C168     C        0.97340    0.97836    0.86615    1.000
    H114     H        0.93840    0.98430    0.87800    1.000
    C169     C        0.95000    0.98695    0.84086    1.000
    C170     C        0.00230    0.97806    0.82309    1.000
    H115     H        0.98670    0.98380    0.80620    1.000
    C171     C        0.07800    0.96057    0.83060    1.000
    H116     H        0.11300    0.95460    0.81870    1.000
    C172     C        0.74420    0.01780    0.81140    1.000
    C173     C        0.70880    0.03212    0.83232    1.000
    H117     H        0.74030    0.03840    0.84730    1.000
    C174     C        0.62630    0.03701    0.83085    1.000
    H118     H        0.60260    0.04660    0.84480    1.000
    C175     C        0.57910    0.02757    0.80845    1.000
    C176     C        0.61460    0.01325    0.78753    1.000
    H119     H        0.58300    0.00690    0.77250    1.000
    C177     C        0.69710    0.00836    0.78901    1.000
    H120     H        0.72080    0.99880    0.77500    1.000
    C178     C        0.48560    0.03001    0.80879    1.000
    C179     C        0.45400    0.02135    0.83122    1.000
    H121     H        0.48710    0.01140    0.84520    1.000
    C180     C        0.37280    0.02760    0.83274    1.000
    H122     H        0.35160    0.02180    0.84770    1.000
    C181     C        0.32330    0.04251    0.81182    1.000
    C182     C        0.35490    0.05116    0.78938    1.000
    H123     H        0.32180    0.06110    0.77540    1.000
    C183     C        0.43610    0.04491    0.78787    1.000
    H124     H        0.45730    0.05070    0.77290    1.000
    C184     C        0.20320    0.82472    0.85800    1.000
    H125     H        0.23270    0.83440    0.84530    1.000
    C185     C        0.19100    0.77828    0.86170    1.000
    H126     H        0.21230    0.75690    0.85140    1.000
    C186     C        0.14700    0.76382    0.88073    1.000
    C187     C        0.11520    0.79579    0.89607    1.000
    H127     H        0.08570    0.78610    0.90880    1.000
    C188     C        0.12730    0.84223    0.89237    1.000
    H128     H        0.10600    0.86360    0.90260    1.000
    C189     C        0.15930    0.62190    0.89909    1.000
    H129     H        0.20760    0.63760    0.90050    1.000
    C190     C        0.08760    0.64594    0.89616    1.000
    C191     C        0.01540    0.62245    0.89403    1.000
    H130     H        0.96740    0.63850    0.89210    1.000
    C192     C        0.01480    0.57492    0.89484    1.000
    H131     H        0.96650    0.55920    0.89340    1.000
    C193     C        0.08650    0.55088    0.89777    1.000
    C194     C        0.15870    0.57437    0.89990    1.000
    H132     H        0.20670    0.55830    0.90190    1.000
    C195     C        0.07120    0.69830    0.89510    1.000
    C196     C        0.14240    0.42680    0.88887    1.000
    H133     H        0.18540    0.41050    0.88390    1.000
    C197     C        0.14580    0.47420    0.89054    1.000
    H134     H        0.19120    0.48970    0.88670    1.000
    C198     C        0.08140    0.49850    0.89793    1.000
    C199     C        0.01350    0.47540    0.90365    1.000
    H135     H        0.97040    0.49170    0.90860    1.000
    C200     C        0.01010    0.42800    0.90197    1.000
    H136     H        0.96470    0.41250    0.90580    1.000
    C201     C        0.07450    0.40370    0.89458    1.000
    C202     C        0.07380    0.35370    0.89870    1.000
    N23      N        0.17320    0.85760    0.87380    1.000
    N24      N        0.13580    0.71700    0.88250    1.000
    H137     H        0.16780    0.69870    0.87600    1.000
    N25      N        0.51780    0.91330    0.75920    1.000
    N26      N        0.47470    0.01820    0.99640    1.000
    N27      N        0.10120    0.95230    0.85610    1.000
    N28      N        0.87120    0.00600    0.83480    1.000
    H138     H        0.85010    0.01860    0.84710    1.000
    N29      N        0.20030    0.05810    0.83426    1.000
    H139     H        0.23000    0.05130    0.84790    1.000
    N30      N        0.99020    0.10650    0.85267    1.000
    N31      N        0.97970    0.99060    0.99400    1.000
    N32      N        0.99720    0.33889    0.88638    1.000
    H140     H        0.96230    0.35970    0.88200    1.000
    C203     C        0.88480    0.23784    0.85756    1.000
    H141     H        0.84180    0.23230    0.84550    1.000
    C204     C        0.91020    0.28244    0.86268    1.000
    H142     H        0.88430    0.30670    0.85400    1.000
    C205     C        0.97440    0.29074    0.88076    1.000
    C206     C        0.01320    0.25443    0.89371    1.000
    H143     H        0.05610    0.26000    0.90580    1.000
    C207     C        0.98770    0.20983    0.88858    1.000
    H144     H        0.01370    0.18550    0.89720    1.000
    N33      N        0.92360    0.20154    0.87051    1.000
    O21      O        0.17670    0.05370    0.79140    1.000
    O22      O        0.85390    0.99760    0.79251    1.000
    O23      O        0.27210    0.00900    0.88540    1.000
    O24      O        0.24210    0.94030    0.90179    1.000
    O25      O        0.35690    0.89120    0.86290    1.000
    O26      O        0.26920    0.92230    0.84034    1.000
    O27      O        0.88860    0.11250    0.89762    1.000
    O28      O        0.83960    0.04750    0.88116    1.000
    O29      O        0.01270    0.71440    0.90440    1.000
    O30      O        0.15530    0.33250    0.89510    1.000
    Zn5      Zn       0.89033    0.13605    0.86365    1.000
    Zn6      Zn       0.20483    0.92240    0.86840    1.000
    C208     C        0.66580    0.90790    0.65390    1.000
    C209     C        0.62430    0.90810    0.68070    1.000
    C210     C        0.54140    0.89860    0.67636    1.000
    H145     H        0.51740    0.89110    0.66040    1.000
    C211     C        0.49730    0.90110    0.69680    1.000
    H146     H        0.44290    0.89460    0.69470    1.000
    C212     C        0.53460    0.91320    0.72034    1.000
    C213     C        0.61590    0.92290    0.72344    1.000
    H147     H        0.64080    0.93100    0.73920    1.000
    C214     C        0.66000    0.92050    0.70299    1.000
    H148     H        0.71440    0.92700    0.70510    1.000
    C215     C        0.72140    0.98140    0.59630    1.000
    C216     C        0.67490    0.99090    0.57130    1.000
    C217     C        0.64530    0.95450    0.55570    1.000
    H149     H        0.66110    0.92470    0.55980    1.000
    C218     C        0.59260    0.96270    0.53431    1.000
    H150     H        0.57420    0.93860    0.52390    1.000
    C219     C        0.56740    0.00710    0.52841    1.000
    C220     C        0.59490    0.04320    0.54390    1.000
    H151     H        0.57800    0.07290    0.54000    1.000
    C221     C        0.64760    0.03500    0.56529    1.000
    H152     H        0.66600    0.05920    0.57570    1.000
    C222     C        0.13270    0.06990    0.60120    1.000
    C223     C        0.10500    0.05340    0.57500    1.000
    C224     C        0.12440    0.00740    0.57126    1.000
    H153     H        0.15460    0.99100    0.58380    1.000
    C225     C        0.09770    0.98680    0.54846    1.000
    H154     H        0.10910    0.95620    0.54580    1.000
    C226     C        0.05390    0.01200    0.52968    1.000
    C227     C        0.03680    0.05780    0.53370    1.000
    H155     H        0.00750    0.07470    0.52110    1.000
    C228     C        0.06350    0.07840    0.55650    1.000
    H156     H        0.05210    0.10900    0.55920    1.000
    C229     C        0.75930    0.04810    0.68880    1.000
    C230     C        0.95100    0.09220    0.62937    1.000
    H157     H        0.95910    0.09350    0.61250    1.000
    C231     C        0.87900    0.07560    0.63620    1.000
    H158     H        0.83950    0.06560    0.62390    1.000
    C232     C        0.86630    0.07390    0.66140    1.000
    C233     C        0.92540    0.08880    0.67977    1.000
    H159     H        0.91690    0.08770    0.69660    1.000
    C234     C        0.99730    0.10540    0.67294    1.000
    H160     H        0.03690    0.11540    0.68520    1.000
    C235     C        0.17540    0.00650    0.68890    1.000
    C236     C        0.95090    0.96086    0.62634    1.000
    H161     H        0.93550    0.95490    0.60940    1.000
    C237     C        0.02660    0.97836    0.63385    1.000
    H162     H        0.06160    0.98430    0.62200    1.000
    C238     C        0.05000    0.98695    0.65914    1.000
    C239     C        0.99770    0.97806    0.67691    1.000
    H163     H        0.01330    0.98380    0.69380    1.000
    C240     C        0.92200    0.96057    0.66940    1.000
    H164     H        0.88700    0.95460    0.68130    1.000
    C241     C        0.25580    0.01780    0.68860    1.000
    C242     C        0.29120    0.03212    0.66768    1.000
    H165     H        0.25970    0.03840    0.65270    1.000
    C243     C        0.37370    0.03701    0.66915    1.000
    H166     H        0.39740    0.04660    0.65520    1.000
    C244     C        0.42090    0.02757    0.69155    1.000
    C245     C        0.38540    0.01325    0.71247    1.000
    H167     H        0.41700    0.00690    0.72750    1.000
    C246     C        0.30290    0.00836    0.71099    1.000
    H168     H        0.27920    0.99880    0.72500    1.000
    C247     C        0.51440    0.03001    0.69121    1.000
    C248     C        0.54600    0.02135    0.66878    1.000
    H169     H        0.51290    0.01140    0.65480    1.000
    C249     C        0.62720    0.02760    0.66726    1.000
    H170     H        0.64840    0.02180    0.65230    1.000
    C250     C        0.67670    0.04251    0.68818    1.000
    C251     C        0.64510    0.05116    0.71062    1.000
    H171     H        0.67820    0.06110    0.72460    1.000
    C252     C        0.56390    0.04491    0.71213    1.000
    H172     H        0.54270    0.05070    0.72710    1.000
    C253     C        0.79680    0.82472    0.64200    1.000
    H173     H        0.76730    0.83440    0.65470    1.000
    C254     C        0.80900    0.77828    0.63830    1.000
    H174     H        0.78770    0.75690    0.64860    1.000
    C255     C        0.85300    0.76382    0.61927    1.000
    C256     C        0.88480    0.79579    0.60393    1.000
    H175     H        0.91430    0.78610    0.59120    1.000
    C257     C        0.87270    0.84223    0.60763    1.000
    H176     H        0.89400    0.86360    0.59740    1.000
    C258     C        0.84070    0.62190    0.60091    1.000
    H177     H        0.79240    0.63760    0.59950    1.000
    C259     C        0.91240    0.64594    0.60384    1.000
    C260     C        0.98460    0.62245    0.60597    1.000
    H178     H        0.03260    0.63850    0.60790    1.000
    C261     C        0.98520    0.57492    0.60516    1.000
    H179     H        0.03350    0.55920    0.60660    1.000
    C262     C        0.91350    0.55088    0.60223    1.000
    C263     C        0.84130    0.57437    0.60010    1.000
    H180     H        0.79330    0.55830    0.59810    1.000
    C264     C        0.92880    0.69830    0.60490    1.000
    C265     C        0.85760    0.42680    0.61113    1.000
    H181     H        0.81460    0.41050    0.61610    1.000
    C266     C        0.85420    0.47420    0.60946    1.000
    H182     H        0.80880    0.48970    0.61330    1.000
    C267     C        0.91860    0.49850    0.60207    1.000
    C268     C        0.98650    0.47540    0.59635    1.000
    H183     H        0.02960    0.49170    0.59140    1.000
    C269     C        0.98990    0.42800    0.59803    1.000
    H184     H        0.03530    0.41250    0.59420    1.000
    C270     C        0.92550    0.40370    0.60542    1.000
    C271     C        0.92620    0.35370    0.60130    1.000
    N34      N        0.82680    0.85760    0.62620    1.000
    N35      N        0.86420    0.71700    0.61750    1.000
    H185     H        0.83220    0.69870    0.62400    1.000
    N36      N        0.48220    0.91330    0.74080    1.000
    N37      N        0.52530    0.01820    0.50360    1.000
    N38      N        0.89880    0.95230    0.64390    1.000
    N39      N        0.12880    0.00600    0.66520    1.000
    H186     H        0.14990    0.01860    0.65290    1.000
    N40      N        0.79970    0.05810    0.66574    1.000
    H187     H        0.77000    0.05130    0.65210    1.000
    N41      N        0.00980    0.10650    0.64733    1.000
    N42      N        0.02030    0.99060    0.50600    1.000
    N43      N        0.00280    0.33889    0.61362    1.000
    H188     H        0.03770    0.35970    0.61800    1.000
    C272     C        0.11520    0.23784    0.64244    1.000
    H189     H        0.15820    0.23230    0.65450    1.000
    C273     C        0.08980    0.28244    0.63732    1.000
    H190     H        0.11570    0.30670    0.64600    1.000
    C274     C        0.02560    0.29074    0.61924    1.000
    C275     C        0.98680    0.25443    0.60629    1.000
    H191     H        0.94390    0.26000    0.59420    1.000
    C276     C        0.01230    0.20983    0.61142    1.000
    H192     H        0.98630    0.18550    0.60280    1.000
    N44      N        0.07640    0.20154    0.62949    1.000
    O31      O        0.82330    0.05370    0.70860    1.000
    O32      O        0.14610    0.99760    0.70749    1.000
    O33      O        0.72790    0.00900    0.61460    1.000
    O34      O        0.75790    0.94030    0.59821    1.000
    O35      O        0.64310    0.89120    0.63710    1.000
    O36      O        0.73080    0.92230    0.65966    1.000
    O37      O        0.11140    0.11250    0.60238    1.000
    O38      O        0.16040    0.04750    0.61884    1.000
    O39      O        0.98730    0.71440    0.59560    1.000
    O40      O        0.84470    0.33250    0.60490    1.000
    Zn7      Zn       0.10967    0.13605    0.63635    1.000
    Zn8      Zn       0.79517    0.92240    0.63160    1.000
    C277     C        0.16580    0.59210    0.15390    1.000
    C278     C        0.12430    0.59190    0.18070    1.000
    C279     C        0.04140    0.60140    0.17636    1.000
    H193     H        0.01740    0.60890    0.16040    1.000
    C280     C        0.99730    0.59890    0.19680    1.000
    H194     H        0.94290    0.60540    0.19470    1.000
    C281     C        0.03460    0.58680    0.22034    1.000
    C282     C        0.11590    0.57710    0.22344    1.000
    H195     H        0.14080    0.56900    0.23920    1.000
    C283     C        0.16000    0.57950    0.20299    1.000
    H196     H        0.21440    0.57300    0.20510    1.000
    C284     C        0.22140    0.51860    0.09630    1.000
    C285     C        0.17490    0.50910    0.07130    1.000
    C286     C        0.14530    0.54550    0.05570    1.000
    H197     H        0.16110    0.57530    0.05980    1.000
    C287     C        0.09260    0.53730    0.03431    1.000
    H198     H        0.07420    0.56140    0.02390    1.000
    C288     C        0.06740    0.49290    0.02841    1.000
    C289     C        0.09490    0.45680    0.04390    1.000
    H199     H        0.07800    0.42710    0.04000    1.000
    C290     C        0.14760    0.46500    0.06529    1.000
    H200     H        0.16600    0.44080    0.07570    1.000
    C291     C        0.63270    0.43010    0.10120    1.000
    C292     C        0.60500    0.44660    0.07500    1.000
    C293     C        0.62440    0.49260    0.07126    1.000
    H201     H        0.65460    0.50900    0.08380    1.000
    C294     C        0.59770    0.51320    0.04846    1.000
    H202     H        0.60910    0.54380    0.04580    1.000
    C295     C        0.55390    0.48800    0.02968    1.000
    C296     C        0.53680    0.44220    0.03370    1.000
    H203     H        0.50750    0.42530    0.02110    1.000
    C297     C        0.56350    0.42160    0.05650    1.000
    H204     H        0.55210    0.39100    0.05920    1.000
    C298     C        0.25930    0.45190    0.18880    1.000
    C299     C        0.45100    0.40780    0.12937    1.000
    H205     H        0.45910    0.40650    0.11250    1.000
    C300     C        0.37900    0.42440    0.13620    1.000
    H206     H        0.33950    0.43440    0.12390    1.000
    C301     C        0.36630    0.42610    0.16140    1.000
    C302     C        0.42540    0.41120    0.17977    1.000
    H207     H        0.41690    0.41230    0.19660    1.000
    C303     C        0.49730    0.39460    0.17294    1.000
    H208     H        0.53690    0.38460    0.18520    1.000
    C304     C        0.67540    0.49350    0.18890    1.000
    C305     C        0.45090    0.53914    0.12634    1.000
    H209     H        0.43550    0.54510    0.10940    1.000
    C306     C        0.52660    0.52164    0.13385    1.000
    H210     H        0.56160    0.51570    0.12200    1.000
    C307     C        0.55000    0.51305    0.15914    1.000
    C308     C        0.49770    0.52194    0.17691    1.000
    H211     H        0.51330    0.51620    0.19380    1.000
    C309     C        0.42200    0.53943    0.16940    1.000
    H212     H        0.38700    0.54540    0.18130    1.000
    C310     C        0.75580    0.48220    0.18860    1.000
    C311     C        0.79120    0.46788    0.16768    1.000
    H213     H        0.75970    0.46160    0.15270    1.000
    C312     C        0.87370    0.46299    0.16915    1.000
    H214     H        0.89740    0.45340    0.15520    1.000
    C313     C        0.92090    0.47243    0.19155    1.000
    C314     C        0.88540    0.48675    0.21247    1.000
    H215     H        0.91700    0.49310    0.22750    1.000
    C315     C        0.80290    0.49164    0.21099    1.000
    H216     H        0.77920    0.50120    0.22500    1.000
    C316     C        0.01440    0.46999    0.19121    1.000
    C317     C        0.04600    0.47865    0.16878    1.000
    H217     H        0.01290    0.48860    0.15480    1.000
    C318     C        0.12720    0.47240    0.16726    1.000
    H218     H        0.14840    0.47820    0.15230    1.000
    C319     C        0.17670    0.45749    0.18818    1.000
    C320     C        0.14510    0.44884    0.21062    1.000
    H219     H        0.17820    0.43890    0.22460    1.000
    C321     C        0.06390    0.45509    0.21213    1.000
    H220     H        0.04270    0.44930    0.22710    1.000
    C322     C        0.29680    0.67528    0.14200    1.000
    H221     H        0.26730    0.66560    0.15470    1.000
    C323     C        0.30900    0.72172    0.13830    1.000
    H222     H        0.28770    0.74310    0.14860    1.000
    C324     C        0.35300    0.73618    0.11927    1.000
    C325     C        0.38480    0.70421    0.10393    1.000
    H223     H        0.41430    0.71390    0.09120    1.000
    C326     C        0.37270    0.65777    0.10763    1.000
    H224     H        0.39400    0.63640    0.09740    1.000
    C327     C        0.34070    0.87810    0.10091    1.000
    H225     H        0.29240    0.86240    0.09950    1.000
    C328     C        0.41240    0.85406    0.10384    1.000
    C329     C        0.48460    0.87755    0.10597    1.000
    H226     H        0.53260    0.86150    0.10790    1.000
    C330     C        0.48520    0.92508    0.10516    1.000
    H227     H        0.53350    0.94080    0.10660    1.000
    C331     C        0.41350    0.94912    0.10223    1.000
    C332     C        0.34130    0.92563    0.10010    1.000
    H228     H        0.29330    0.94170    0.09810    1.000
    C333     C        0.42880    0.80170    0.10490    1.000
    C334     C        0.35760    0.07320    0.11113    1.000
    H229     H        0.31460    0.08950    0.11610    1.000
    C335     C        0.35420    0.02580    0.10946    1.000
    H230     H        0.30880    0.01030    0.11330    1.000
    C336     C        0.41860    0.00150    0.10207    1.000
    C337     C        0.48650    0.02460    0.09635    1.000
    H231     H        0.52960    0.00830    0.09140    1.000
    C338     C        0.48990    0.07200    0.09803    1.000
    H232     H        0.53530    0.08750    0.09420    1.000
    C339     C        0.42550    0.09630    0.10542    1.000
    C340     C        0.42620    0.14630    0.10130    1.000
    N45      N        0.32680    0.64240    0.12620    1.000
    N46      N        0.36420    0.78300    0.11750    1.000
    H233     H        0.33220    0.80130    0.12400    1.000
    N47      N        0.98220    0.58670    0.24080    1.000
    N48      N        0.02530    0.48180    0.00360    1.000
    N49      N        0.39880    0.54770    0.14390    1.000
    N50      N        0.62880    0.49400    0.16520    1.000
    H234     H        0.64990    0.48140    0.15290    1.000
    N51      N        0.29970    0.44190    0.16574    1.000
    H235     H        0.27000    0.44870    0.15210    1.000
    N52      N        0.50980    0.39350    0.14733    1.000
    N53      N        0.52030    0.50940    0.00600    1.000
    N54      N        0.50280    0.16111    0.11362    1.000
    H236     H        0.53770    0.14030    0.11800    1.000
    C341     C        0.61520    0.26216    0.14244    1.000
    H237     H        0.65820    0.26770    0.15450    1.000
    C342     C        0.58980    0.21756    0.13732    1.000
    H238     H        0.61570    0.19330    0.14600    1.000
    C343     C        0.52560    0.20926    0.11924    1.000
    C344     C        0.48680    0.24557    0.10629    1.000
    H239     H        0.44390    0.24000    0.09420    1.000
    C345     C        0.51230    0.29017    0.11142    1.000
    H240     H        0.48630    0.31450    0.10280    1.000
    N55      N        0.57640    0.29846    0.12949    1.000
    O41      O        0.32330    0.44630    0.20860    1.000
    O42      O        0.64610    0.50240    0.20749    1.000
    O43      O        0.22790    0.49100    0.11460    1.000
    O44      O        0.25790    0.55970    0.09821    1.000
    O45      O        0.14310    0.60880    0.13710    1.000
    O46      O        0.23080    0.57770    0.15966    1.000
    O47      O        0.61140    0.38750    0.10238    1.000
    O48      O        0.66040    0.45250    0.11884    1.000
    O49      O        0.48730    0.78560    0.09560    1.000
    O50      O        0.34470    0.16750    0.10490    1.000
    Zn9      Zn       0.60967    0.36395    0.13635    1.000
    Zn10     Zn       0.29517    0.57760    0.13160    1.000
    C346     C        0.83420    0.59210    0.34610    1.000
    C347     C        0.87570    0.59190    0.31930    1.000
    C348     C        0.95860    0.60140    0.32364    1.000
    H241     H        0.98260    0.60890    0.33960    1.000
    C349     C        0.00270    0.59890    0.30320    1.000
    H242     H        0.05710    0.60540    0.30530    1.000
    C350     C        0.96540    0.58680    0.27966    1.000
    C351     C        0.88410    0.57710    0.27656    1.000
    H243     H        0.85920    0.56900    0.26080    1.000
    C352     C        0.84000    0.57950    0.29701    1.000
    H244     H        0.78560    0.57300    0.29490    1.000
    C353     C        0.77860    0.51860    0.40370    1.000
    C354     C        0.82510    0.50910    0.42870    1.000
    C355     C        0.85470    0.54550    0.44430    1.000
    H245     H        0.83890    0.57530    0.44020    1.000
    C356     C        0.90740    0.53730    0.46569    1.000
    H246     H        0.92580    0.56140    0.47610    1.000
    C357     C        0.93260    0.49290    0.47159    1.000
    C358     C        0.90510    0.45680    0.45610    1.000
    H247     H        0.92200    0.42710    0.46000    1.000
    C359     C        0.85240    0.46500    0.43471    1.000
    H248     H        0.83400    0.44080    0.42430    1.000
    C360     C        0.36730    0.43010    0.39880    1.000
    C361     C        0.39500    0.44660    0.42500    1.000
    C362     C        0.37560    0.49260    0.42874    1.000
    H249     H        0.34540    0.50900    0.41620    1.000
    C363     C        0.40230    0.51320    0.45154    1.000
    H250     H        0.39090    0.54380    0.45420    1.000
    C364     C        0.44610    0.48800    0.47032    1.000
    C365     C        0.46320    0.44220    0.46630    1.000
    H251     H        0.49250    0.42530    0.47890    1.000
    C366     C        0.43650    0.42160    0.44350    1.000
    H252     H        0.44790    0.39100    0.44080    1.000
    C367     C        0.74070    0.45190    0.31120    1.000
    C368     C        0.54900    0.40780    0.37063    1.000
    H253     H        0.54090    0.40650    0.38750    1.000
    C369     C        0.62100    0.42440    0.36380    1.000
    H254     H        0.66050    0.43440    0.37610    1.000
    C370     C        0.63370    0.42610    0.33860    1.000
    C371     C        0.57460    0.41120    0.32023    1.000
    H255     H        0.58310    0.41230    0.30340    1.000
    C372     C        0.50270    0.39460    0.32706    1.000
    H256     H        0.46310    0.38460    0.31480    1.000
    C373     C        0.32460    0.49350    0.31110    1.000
    C374     C        0.54910    0.53914    0.37366    1.000
    H257     H        0.56450    0.54510    0.39060    1.000
    C375     C        0.47340    0.52164    0.36615    1.000
    H258     H        0.43840    0.51570    0.37800    1.000
    C376     C        0.45000    0.51305    0.34086    1.000
    C377     C        0.50230    0.52194    0.32309    1.000
    H259     H        0.48670    0.51620    0.30620    1.000
    C378     C        0.57800    0.53943    0.33060    1.000
    H260     H        0.61300    0.54540    0.31870    1.000
    C379     C        0.24420    0.48220    0.31140    1.000
    C380     C        0.20880    0.46788    0.33232    1.000
    H261     H        0.24030    0.46160    0.34730    1.000
    C381     C        0.12630    0.46299    0.33085    1.000
    H262     H        0.10260    0.45340    0.34480    1.000
    C382     C        0.07910    0.47243    0.30845    1.000
    C383     C        0.11460    0.48675    0.28753    1.000
    H263     H        0.08300    0.49310    0.27250    1.000
    C384     C        0.19710    0.49164    0.28901    1.000
    H264     H        0.22080    0.50120    0.27500    1.000
    C385     C        0.98560    0.46999    0.30879    1.000
    C386     C        0.95400    0.47865    0.33122    1.000
    H265     H        0.98710    0.48860    0.34520    1.000
    C387     C        0.87280    0.47240    0.33274    1.000
    H266     H        0.85160    0.47820    0.34770    1.000
    C388     C        0.82330    0.45749    0.31182    1.000
    C389     C        0.85490    0.44884    0.28938    1.000
    H267     H        0.82180    0.43890    0.27540    1.000
    C390     C        0.93610    0.45509    0.28787    1.000
    H268     H        0.95730    0.44930    0.27290    1.000
    C391     C        0.70320    0.67528    0.35800    1.000
    H269     H        0.73270    0.66560    0.34530    1.000
    C392     C        0.69100    0.72172    0.36170    1.000
    H270     H        0.71230    0.74310    0.35140    1.000
    C393     C        0.64700    0.73618    0.38073    1.000
    C394     C        0.61520    0.70421    0.39607    1.000
    H271     H        0.58570    0.71390    0.40880    1.000
    C395     C        0.62730    0.65777    0.39237    1.000
    H272     H        0.60600    0.63640    0.40260    1.000
    C396     C        0.65930    0.87810    0.39909    1.000
    H273     H        0.70760    0.86240    0.40050    1.000
    C397     C        0.58760    0.85406    0.39616    1.000
    C398     C        0.51540    0.87755    0.39403    1.000
    H274     H        0.46740    0.86150    0.39210    1.000
    C399     C        0.51480    0.92508    0.39484    1.000
    H275     H        0.46650    0.94080    0.39340    1.000
    C400     C        0.58650    0.94912    0.39777    1.000
    C401     C        0.65870    0.92563    0.39990    1.000
    H276     H        0.70670    0.94170    0.40190    1.000
    C402     C        0.57120    0.80170    0.39510    1.000
    C403     C        0.64240    0.07320    0.38887    1.000
    H277     H        0.68540    0.08950    0.38390    1.000
    C404     C        0.64580    0.02580    0.39054    1.000
    H278     H        0.69120    0.01030    0.38670    1.000
    C405     C        0.58140    0.00150    0.39793    1.000
    C406     C        0.51350    0.02460    0.40365    1.000
    H279     H        0.47040    0.00830    0.40860    1.000
    C407     C        0.51010    0.07200    0.40197    1.000
    H280     H        0.46470    0.08750    0.40580    1.000
    C408     C        0.57450    0.09630    0.39458    1.000
    C409     C        0.57380    0.14630    0.39870    1.000
    N56      N        0.67320    0.64240    0.37380    1.000
    N57      N        0.63580    0.78300    0.38250    1.000
    H281     H        0.66780    0.80130    0.37600    1.000
    N58      N        0.01780    0.58670    0.25920    1.000
    N59      N        0.97470    0.48180    0.49640    1.000
    N60      N        0.60120    0.54770    0.35610    1.000
    N61      N        0.37120    0.49400    0.33480    1.000
    H282     H        0.35010    0.48140    0.34710    1.000
    N62      N        0.70030    0.44190    0.33426    1.000
    H283     H        0.73000    0.44870    0.34790    1.000
    N63      N        0.49020    0.39350    0.35267    1.000
    N64      N        0.47970    0.50940    0.49400    1.000
    N65      N        0.49720    0.16111    0.38638    1.000
    H284     H        0.46230    0.14030    0.38200    1.000
    C410     C        0.38480    0.26216    0.35756    1.000
    H285     H        0.34180    0.26770    0.34550    1.000
    C411     C        0.41020    0.21756    0.36268    1.000
    H286     H        0.38430    0.19330    0.35400    1.000
    C412     C        0.47440    0.20926    0.38076    1.000
    C413     C        0.51320    0.24557    0.39371    1.000
    H287     H        0.55610    0.24000    0.40580    1.000
    C414     C        0.48770    0.29017    0.38858    1.000
    H288     H        0.51370    0.31450    0.39720    1.000
    N66      N        0.42360    0.29846    0.37051    1.000
    O51      O        0.67670    0.44630    0.29140    1.000
    O52      O        0.35390    0.50240    0.29251    1.000
    O53      O        0.77210    0.49100    0.38540    1.000
    O54      O        0.74210    0.55970    0.40179    1.000
    O55      O        0.85690    0.60880    0.36290    1.000
    O56      O        0.76920    0.57770    0.34034    1.000
    O57      O        0.38860    0.38750    0.39762    1.000
    O58      O        0.33960    0.45250    0.38116    1.000
    O59      O        0.51270    0.78560    0.40440    1.000
    O60      O        0.65530    0.16750    0.39510    1.000
    Zn11     Zn       0.39033    0.36395    0.36365    1.000
    Zn12     Zn       0.70483    0.57760    0.36840    1.000
    C415     C        0.83420    0.40790    0.84610    1.000
    C416     C        0.87570    0.40810    0.81930    1.000
    C417     C        0.95860    0.39860    0.82364    1.000
    H289     H        0.98260    0.39110    0.83960    1.000
    C418     C        0.00270    0.40110    0.80320    1.000
    H290     H        0.05710    0.39460    0.80530    1.000
    C419     C        0.96540    0.41320    0.77966    1.000
    C420     C        0.88410    0.42290    0.77656    1.000
    H291     H        0.85920    0.43100    0.76080    1.000
    C421     C        0.84000    0.42050    0.79701    1.000
    H292     H        0.78560    0.42700    0.79490    1.000
    C422     C        0.77860    0.48140    0.90370    1.000
    C423     C        0.82510    0.49090    0.92870    1.000
    C424     C        0.85470    0.45450    0.94430    1.000
    H293     H        0.83890    0.42470    0.94020    1.000
    C425     C        0.90740    0.46270    0.96569    1.000
    H294     H        0.92580    0.43860    0.97610    1.000
    C426     C        0.93260    0.50710    0.97159    1.000
    C427     C        0.90510    0.54320    0.95610    1.000
    H295     H        0.92200    0.57290    0.96000    1.000
    C428     C        0.85240    0.53500    0.93471    1.000
    H296     H        0.83400    0.55920    0.92430    1.000
    C429     C        0.36730    0.56990    0.89880    1.000
    C430     C        0.39500    0.55340    0.92500    1.000
    C431     C        0.37560    0.50740    0.92874    1.000
    H297     H        0.34540    0.49100    0.91620    1.000
    C432     C        0.40230    0.48680    0.95154    1.000
    H298     H        0.39090    0.45620    0.95420    1.000
    C433     C        0.44610    0.51200    0.97032    1.000
    C434     C        0.46320    0.55780    0.96630    1.000
    H299     H        0.49250    0.57470    0.97890    1.000
    C435     C        0.43650    0.57840    0.94350    1.000
    H300     H        0.44790    0.60900    0.94080    1.000
    C436     C        0.74070    0.54810    0.81120    1.000
    C437     C        0.54900    0.59220    0.87063    1.000
    H301     H        0.54090    0.59350    0.88750    1.000
    C438     C        0.62100    0.57560    0.86380    1.000
    H302     H        0.66050    0.56560    0.87610    1.000
    C439     C        0.63370    0.57390    0.83860    1.000
    C440     C        0.57460    0.58880    0.82023    1.000
    H303     H        0.58310    0.58770    0.80340    1.000
    C441     C        0.50270    0.60540    0.82706    1.000
    H304     H        0.46310    0.61540    0.81480    1.000
    C442     C        0.32460    0.50650    0.81110    1.000
    C443     C        0.54910    0.46086    0.87366    1.000
    H305     H        0.56450    0.45490    0.89060    1.000
    C444     C        0.47340    0.47836    0.86615    1.000
    H306     H        0.43840    0.48430    0.87800    1.000
    C445     C        0.45000    0.48695    0.84086    1.000
    C446     C        0.50230    0.47806    0.82309    1.000
    H307     H        0.48670    0.48380    0.80620    1.000
    C447     C        0.57800    0.46057    0.83060    1.000
    H308     H        0.61300    0.45460    0.81870    1.000
    C448     C        0.24420    0.51780    0.81140    1.000
    C449     C        0.20880    0.53212    0.83232    1.000
    H309     H        0.24030    0.53840    0.84730    1.000
    C450     C        0.12630    0.53701    0.83085    1.000
    H310     H        0.10260    0.54660    0.84480    1.000
    C451     C        0.07910    0.52757    0.80845    1.000
    C452     C        0.11460    0.51325    0.78753    1.000
    H311     H        0.08300    0.50690    0.77250    1.000
    C453     C        0.19710    0.50836    0.78901    1.000
    H312     H        0.22080    0.49880    0.77500    1.000
    C454     C        0.98560    0.53001    0.80879    1.000
    C455     C        0.95400    0.52135    0.83122    1.000
    H313     H        0.98710    0.51140    0.84520    1.000
    C456     C        0.87280    0.52760    0.83274    1.000
    H314     H        0.85160    0.52180    0.84770    1.000
    C457     C        0.82330    0.54251    0.81182    1.000
    C458     C        0.85490    0.55116    0.78938    1.000
    H315     H        0.82180    0.56110    0.77540    1.000
    C459     C        0.93610    0.54491    0.78787    1.000
    H316     H        0.95730    0.55070    0.77290    1.000
    C460     C        0.70320    0.32472    0.85800    1.000
    H317     H        0.73270    0.33440    0.84530    1.000
    C461     C        0.69100    0.27828    0.86170    1.000
    H318     H        0.71230    0.25690    0.85140    1.000
    C462     C        0.64700    0.26382    0.88073    1.000
    C463     C        0.61520    0.29579    0.89607    1.000
    H319     H        0.58570    0.28610    0.90880    1.000
    C464     C        0.62730    0.34223    0.89237    1.000
    H320     H        0.60600    0.36360    0.90260    1.000
    C465     C        0.65930    0.12190    0.89909    1.000
    H321     H        0.70760    0.13760    0.90050    1.000
    C466     C        0.58760    0.14594    0.89616    1.000
    C467     C        0.51540    0.12245    0.89403    1.000
    H322     H        0.46740    0.13850    0.89210    1.000
    C468     C        0.51480    0.07492    0.89484    1.000
    H323     H        0.46650    0.05920    0.89340    1.000
    C469     C        0.58650    0.05088    0.89777    1.000
    C470     C        0.65870    0.07437    0.89990    1.000
    H324     H        0.70670    0.05830    0.90190    1.000
    C471     C        0.57120    0.19830    0.89510    1.000
    C472     C        0.64240    0.92680    0.88887    1.000
    H325     H        0.68540    0.91050    0.88390    1.000
    C473     C        0.64580    0.97420    0.89054    1.000
    H326     H        0.69120    0.98970    0.88670    1.000
    C474     C        0.58140    0.99850    0.89793    1.000
    C475     C        0.51350    0.97540    0.90365    1.000
    H327     H        0.47040    0.99170    0.90860    1.000
    C476     C        0.51010    0.92800    0.90197    1.000
    H328     H        0.46470    0.91250    0.90580    1.000
    C477     C        0.57450    0.90370    0.89458    1.000
    C478     C        0.57380    0.85370    0.89870    1.000
    N67      N        0.67320    0.35760    0.87380    1.000
    N68      N        0.63580    0.21700    0.88250    1.000
    H329     H        0.66780    0.19870    0.87600    1.000
    N69      N        0.01780    0.41330    0.75920    1.000
    N70      N        0.97470    0.51820    0.99640    1.000
    N71      N        0.60120    0.45230    0.85610    1.000
    N72      N        0.37120    0.50600    0.83480    1.000
    H330     H        0.35010    0.51860    0.84710    1.000
    N73      N        0.70030    0.55810    0.83426    1.000
    H331     H        0.73000    0.55130    0.84790    1.000
    N74      N        0.49020    0.60650    0.85267    1.000
    N75      N        0.47970    0.49060    0.99400    1.000
    N76      N        0.49720    0.83889    0.88638    1.000
    H332     H        0.46230    0.85970    0.88200    1.000
    C479     C        0.38480    0.73784    0.85756    1.000
    H333     H        0.34180    0.73230    0.84550    1.000
    C480     C        0.41020    0.78244    0.86268    1.000
    H334     H        0.38430    0.80670    0.85400    1.000
    C481     C        0.47440    0.79074    0.88076    1.000
    C482     C        0.51320    0.75443    0.89371    1.000
    H335     H        0.55610    0.76000    0.90580    1.000
    C483     C        0.48770    0.70983    0.88858    1.000
    H336     H        0.51370    0.68550    0.89720    1.000
    N77      N        0.42360    0.70154    0.87051    1.000
    O61      O        0.67670    0.55370    0.79140    1.000
    O62      O        0.35390    0.49760    0.79251    1.000
    O63      O        0.77210    0.50900    0.88540    1.000
    O64      O        0.74210    0.44030    0.90179    1.000
    O65      O        0.85690    0.39120    0.86290    1.000
    O66      O        0.76920    0.42230    0.84034    1.000
    O67      O        0.38860    0.61250    0.89762    1.000
    O68      O        0.33960    0.54750    0.88116    1.000
    O69      O        0.51270    0.21440    0.90440    1.000
    O70      O        0.65530    0.83250    0.89510    1.000
    Zn13     Zn       0.39033    0.63605    0.86365    1.000
    Zn14     Zn       0.70483    0.42240    0.86840    1.000
    C484     C        0.16580    0.40790    0.65390    1.000
    C485     C        0.12430    0.40810    0.68070    1.000
    C486     C        0.04140    0.39860    0.67636    1.000
    H337     H        0.01740    0.39110    0.66040    1.000
    C487     C        0.99730    0.40110    0.69680    1.000
    H338     H        0.94290    0.39460    0.69470    1.000
    C488     C        0.03460    0.41320    0.72034    1.000
    C489     C        0.11590    0.42290    0.72344    1.000
    H339     H        0.14080    0.43100    0.73920    1.000
    C490     C        0.16000    0.42050    0.70299    1.000
    H340     H        0.21440    0.42700    0.70510    1.000
    C491     C        0.22140    0.48140    0.59630    1.000
    C492     C        0.17490    0.49090    0.57130    1.000
    C493     C        0.14530    0.45450    0.55570    1.000
    H341     H        0.16110    0.42470    0.55980    1.000
    C494     C        0.09260    0.46270    0.53431    1.000
    H342     H        0.07420    0.43860    0.52390    1.000
    C495     C        0.06740    0.50710    0.52841    1.000
    C496     C        0.09490    0.54320    0.54390    1.000
    H343     H        0.07800    0.57290    0.54000    1.000
    C497     C        0.14760    0.53500    0.56529    1.000
    H344     H        0.16600    0.55920    0.57570    1.000
    C498     C        0.63270    0.56990    0.60120    1.000
    C499     C        0.60500    0.55340    0.57500    1.000
    C500     C        0.62440    0.50740    0.57126    1.000
    H345     H        0.65460    0.49100    0.58380    1.000
    C501     C        0.59770    0.48680    0.54846    1.000
    H346     H        0.60910    0.45620    0.54580    1.000
    C502     C        0.55390    0.51200    0.52968    1.000
    C503     C        0.53680    0.55780    0.53370    1.000
    H347     H        0.50750    0.57470    0.52110    1.000
    C504     C        0.56350    0.57840    0.55650    1.000
    H348     H        0.55210    0.60900    0.55920    1.000
    C505     C        0.25930    0.54810    0.68880    1.000
    C506     C        0.45100    0.59220    0.62937    1.000
    H349     H        0.45910    0.59350    0.61250    1.000
    C507     C        0.37900    0.57560    0.63620    1.000
    H350     H        0.33950    0.56560    0.62390    1.000
    C508     C        0.36630    0.57390    0.66140    1.000
    C509     C        0.42540    0.58880    0.67977    1.000
    H351     H        0.41690    0.58770    0.69660    1.000
    C510     C        0.49730    0.60540    0.67294    1.000
    H352     H        0.53690    0.61540    0.68520    1.000
    C511     C        0.67540    0.50650    0.68890    1.000
    C512     C        0.45090    0.46086    0.62634    1.000
    H353     H        0.43550    0.45490    0.60940    1.000
    C513     C        0.52660    0.47836    0.63385    1.000
    H354     H        0.56160    0.48430    0.62200    1.000
    C514     C        0.55000    0.48695    0.65914    1.000
    C515     C        0.49770    0.47806    0.67691    1.000
    H355     H        0.51330    0.48380    0.69380    1.000
    C516     C        0.42200    0.46057    0.66940    1.000
    H356     H        0.38700    0.45460    0.68130    1.000
    C517     C        0.75580    0.51780    0.68860    1.000
    C518     C        0.79120    0.53212    0.66768    1.000
    H357     H        0.75970    0.53840    0.65270    1.000
    C519     C        0.87370    0.53701    0.66915    1.000
    H358     H        0.89740    0.54660    0.65520    1.000
    C520     C        0.92090    0.52757    0.69155    1.000
    C521     C        0.88540    0.51325    0.71247    1.000
    H359     H        0.91700    0.50690    0.72750    1.000
    C522     C        0.80290    0.50836    0.71099    1.000
    H360     H        0.77920    0.49880    0.72500    1.000
    C523     C        0.01440    0.53001    0.69121    1.000
    C524     C        0.04600    0.52135    0.66878    1.000
    H361     H        0.01290    0.51140    0.65480    1.000
    C525     C        0.12720    0.52760    0.66726    1.000
    H362     H        0.14840    0.52180    0.65230    1.000
    C526     C        0.17670    0.54251    0.68818    1.000
    C527     C        0.14510    0.55116    0.71062    1.000
    H363     H        0.17820    0.56110    0.72460    1.000
    C528     C        0.06390    0.54491    0.71213    1.000
    H364     H        0.04270    0.55070    0.72710    1.000
    C529     C        0.29680    0.32472    0.64200    1.000
    H365     H        0.26730    0.33440    0.65470    1.000
    C530     C        0.30900    0.27828    0.63830    1.000
    H366     H        0.28770    0.25690    0.64860    1.000
    C531     C        0.35300    0.26382    0.61927    1.000
    C532     C        0.38480    0.29579    0.60393    1.000
    H367     H        0.41430    0.28610    0.59120    1.000
    C533     C        0.37270    0.34223    0.60763    1.000
    H368     H        0.39400    0.36360    0.59740    1.000
    C534     C        0.34070    0.12190    0.60091    1.000
    H369     H        0.29240    0.13760    0.59950    1.000
    C535     C        0.41240    0.14594    0.60384    1.000
    C536     C        0.48460    0.12245    0.60597    1.000
    H370     H        0.53260    0.13850    0.60790    1.000
    C537     C        0.48520    0.07492    0.60516    1.000
    H371     H        0.53350    0.05920    0.60660    1.000
    C538     C        0.41350    0.05088    0.60223    1.000
    C539     C        0.34130    0.07437    0.60010    1.000
    H372     H        0.29330    0.05830    0.59810    1.000
    C540     C        0.42880    0.19830    0.60490    1.000
    C541     C        0.35760    0.92680    0.61113    1.000
    H373     H        0.31460    0.91050    0.61610    1.000
    C542     C        0.35420    0.97420    0.60946    1.000
    H374     H        0.30880    0.98970    0.61330    1.000
    C543     C        0.41860    0.99850    0.60207    1.000
    C544     C        0.48650    0.97540    0.59635    1.000
    H375     H        0.52960    0.99170    0.59140    1.000
    C545     C        0.48990    0.92800    0.59803    1.000
    H376     H        0.53530    0.91250    0.59420    1.000
    C546     C        0.42550    0.90370    0.60542    1.000
    C547     C        0.42620    0.85370    0.60130    1.000
    N78      N        0.32680    0.35760    0.62620    1.000
    N79      N        0.36420    0.21700    0.61750    1.000
    H377     H        0.33220    0.19870    0.62400    1.000
    N80      N        0.98220    0.41330    0.74080    1.000
    N81      N        0.02530    0.51820    0.50360    1.000
    N82      N        0.39880    0.45230    0.64390    1.000
    N83      N        0.62880    0.50600    0.66520    1.000
    H378     H        0.64990    0.51860    0.65290    1.000
    N84      N        0.29970    0.55810    0.66574    1.000
    H379     H        0.27000    0.55130    0.65210    1.000
    N85      N        0.50980    0.60650    0.64733    1.000
    N86      N        0.52030    0.49060    0.50600    1.000
    N87      N        0.50280    0.83889    0.61362    1.000
    H380     H        0.53770    0.85970    0.61800    1.000
    C548     C        0.61520    0.73784    0.64244    1.000
    H381     H        0.65820    0.73230    0.65450    1.000
    C549     C        0.58980    0.78244    0.63732    1.000
    H382     H        0.61570    0.80670    0.64600    1.000
    C550     C        0.52560    0.79074    0.61924    1.000
    C551     C        0.48680    0.75443    0.60629    1.000
    H383     H        0.44390    0.76000    0.59420    1.000
    C552     C        0.51230    0.70983    0.61142    1.000
    H384     H        0.48630    0.68550    0.60280    1.000
    N88      N        0.57640    0.70154    0.62949    1.000
    O71      O        0.32330    0.55370    0.70860    1.000
    O72      O        0.64610    0.49760    0.70749    1.000
    O73      O        0.22790    0.50900    0.61460    1.000
    O74      O        0.25790    0.44030    0.59821    1.000
    O75      O        0.14310    0.39120    0.63710    1.000
    O76      O        0.23080    0.42230    0.65966    1.000
    O77      O        0.61140    0.61250    0.60238    1.000
    O78      O        0.66040    0.54750    0.61884    1.000
    O79      O        0.48730    0.21440    0.59560    1.000
    O80      O        0.34470    0.83250    0.60490    1.000
    Zn15     Zn       0.60967    0.63605    0.63635    1.000
    Zn16     Zn       0.29517    0.42240    0.63160    1.000
