# CIF file generated by openbabel 3.1.0, see https://openbabel.org
data_I
_chemical_name_common 'image0'
_cell_length_a 10.5675
_cell_length_b 11.5148
_cell_length_c 13.4306
_cell_angle_alpha 69.151
_cell_angle_beta 78.569
_cell_angle_gamma 63.228
_space_group_name_H-M_alt 'P 1'
_space_group_name_Hall 'P 1'
loop_
    _symmetry_equiv_pos_as_xyz
    x,y,z
loop_
    _atom_site_label
    _atom_site_type_symbol
    _atom_site_fract_x
    _atom_site_fract_y
    _atom_site_fract_z
    _atom_site_occupancy
    U1       U        0.62428    0.71303    0.83617    1.000
    Tb1      Tb       0.60045    0.22954    0.75007    1.000
    O1       O        0.85150    0.53610    0.91310    1.000
    O2       O        0.76300    0.49540    0.80160    1.000
    O3       O        0.81770    0.23300    0.77060    1.000
    O4       O        0.88730    0.36330    0.62650    1.000
    O5       O        0.41790    0.92000    0.82090    1.000
    O6       O        0.50380    0.07680    0.75430    1.000
    O7       O        0.48230    0.17660    0.91780    1.000
    O8       O        0.32450    0.19780    0.05280    1.000
    O9       O        0.50140    0.69690    0.71760    1.000
    O10      O        0.41050    0.70310    0.58090    1.000
    O11      O        0.73380    0.63400    0.53400    1.000
    O12      O        0.86380    0.74860    0.47800    1.000
    C1       C        0.99830    0.34330    0.85130    1.000
    C2       C        0.11160    0.31260    0.90880    1.000
    H1       H        0.09650    0.35850    0.95770    1.000
    C3       C        0.24610    0.21550    0.89490    1.000
    C4       C        0.26640    0.14240    0.82400    1.000
    C5       C        0.14880    0.16590    0.77480    1.000
    H2       H        0.16010    0.11180    0.73340    1.000
    C6       C        0.01580    0.26710    0.78560    1.000
    C7       C        0.62720    0.99890    0.44990    1.000
    H3       H        0.71340    0.99810    0.41640    1.000
    C8       C        0.61720    0.87550    0.50500    1.000
    C9       C        0.48810    0.87700    0.55640    1.000
    C10      C        0.86430    0.46270    0.85670    1.000
    C11      C        0.36140    0.19480    0.95660    1.000
    C12      C        0.40820    0.03920    0.79830    1.000
    C13      C        0.89660    0.29110    0.72410    1.000
    C14      C        0.46700    0.74890    0.62200    1.000
    C15      C        0.74420    0.74650    0.50660    1.000
    U2       U        0.37572    0.28697    0.16383    1.000
    Tb2      Tb       0.39955    0.77046    0.24993    1.000
    O13      O        0.14850    0.46390    0.08690    1.000
    O14      O        0.23700    0.50460    0.19840    1.000
    O15      O        0.18230    0.76700    0.22940    1.000
    O16      O        0.11270    0.63670    0.37350    1.000
    O17      O        0.58210    0.08000    0.17910    1.000
    O18      O        0.49620    0.92320    0.24570    1.000
    O19      O        0.51770    0.82340    0.08220    1.000
    O20      O        0.67550    0.80220    0.94720    1.000
    O21      O        0.49860    0.30310    0.28240    1.000
    O22      O        0.58950    0.29690    0.41910    1.000
    O23      O        0.26620    0.36600    0.46600    1.000
    O24      O        0.13620    0.25140    0.52200    1.000
    C16      C        0.00170    0.65670    0.14870    1.000
    C17      C        0.88840    0.68740    0.09120    1.000
    H4       H        0.90350    0.64150    0.04230    1.000
    C18      C        0.75390    0.78450    0.10510    1.000
    C19      C        0.73360    0.85760    0.17600    1.000
    C20      C        0.85120    0.83410    0.22520    1.000
    H5       H        0.83990    0.88820    0.26660    1.000
    C21      C        0.98420    0.73290    0.21440    1.000
    C22      C        0.37280    0.00110    0.55010    1.000
    H6       H        0.28660    0.00190    0.58360    1.000
    C23      C        0.38280    0.12450    0.49500    1.000
    C24      C        0.51190    0.12300    0.44360    1.000
    C25      C        0.13570    0.53730    0.14330    1.000
    C26      C        0.63860    0.80520    0.04340    1.000
    C27      C        0.59180    0.96080    0.20170    1.000
    C28      C        0.10340    0.70890    0.27590    1.000
    C29      C        0.53300    0.25110    0.37800    1.000
    C30      C        0.25580    0.25350    0.49340    1.000
    U3       U        0.00000    0.50000    0.50000    1.000
