# CIF file generated by openbabel 3.1.0, see https://openbabel.org
data_I
_chemical_name_common 'image0'
_cell_length_a 17.9693
_cell_length_b 17.9693
_cell_length_c 30.1894
_cell_angle_alpha 90
_cell_angle_beta 90
_cell_angle_gamma 90
_space_group_name_H-M_alt 'P 1'
_space_group_name_Hall 'P 1'
loop_
    _symmetry_equiv_pos_as_xyz
    x,y,z
loop_
    _atom_site_label
    _atom_site_type_symbol
    _atom_site_fract_x
    _atom_site_fract_y
    _atom_site_fract_z
    _atom_site_occupancy
    Cd1      Cd       0.68097    0.16820    0.31251    1.000
    Cd2      Cd       0.85047    0.67294    0.31837    1.000
    O1       O        0.83496    0.80356    0.31397    1.000
    N1       N        0.97860    0.50500    0.07809    1.000
    N2       N        0.79890    0.65880    0.17527    1.000
    O2       O        0.75490    0.06470    0.31576    1.000
    O3       O        0.95460    0.77620    0.31826    1.000
    N3       N        0.09047    0.55280    0.07277    1.000
    C1       C        0.88180    0.03230    0.31143    1.000
    N4       N        0.84010    0.67442    0.24354    1.000
    C2       C        0.99490    0.92670    0.31371    1.000
    H1       H        0.03320    0.89190    0.31380    1.000
    O4       O        0.83540    0.15550    0.30534    1.000
    C3       C        0.01040    0.00190    0.31353    1.000
    C4       C        0.92090    0.90390    0.31379    1.000
    N5       N        0.83950    0.68280    0.39292    1.000
    N6       N        0.52680    0.98140    0.29917    1.000
    N7       N        0.58560    0.08747    0.30388    1.000
    C5       C        0.86530    0.95690    0.31229    1.000
    H2       H        0.81580    0.94170    0.31180    1.000
    C6       C        0.75400    0.63110    0.13746    1.000
    H3       H        0.75230    0.66910    0.11460    1.000
    H4       H        0.70350    0.62200    0.14740    1.000
    C7       C        0.81990    0.08970    0.31073    1.000
    C8       C        0.58970    0.01500    0.31067    1.000
    H5       H        0.63120    0.99070    0.32200    1.000
    C9       C        0.48020    0.03440    0.28419    1.000
    H6       H        0.43210    0.02740    0.27370    1.000
    C10      C        0.86610    0.56820    0.10432    1.000
    H7       H        0.87040    0.61070    0.08470    1.000
    H8       H        0.89560    0.57850    0.13050    1.000
    C11      C        0.95520    0.05520    0.31148    1.000
    H9       H        0.96720    0.10550    0.31020    1.000
    C12      C        0.01890    0.56690    0.07337    1.000
    H10      H        0.99860    0.61430    0.07080    1.000
    N8       N        0.80960    0.65170    0.46039    1.000
    C13      C        0.90320    0.82130    0.31547    1.000
    C14      C        0.62590    0.74430    0.24627    1.000
    H11      H        0.61340    0.69360    0.23820    1.000
    H12      H        0.66270    0.74220    0.26970    1.000
    O5       O        0.13730    0.98060    0.31550    1.000
    O6       O        0.10130    0.09220    0.31520    1.000
    C15      C        0.89700    0.50120    0.08161    1.000
    H13      H        0.88320    0.45690    0.09800    1.000
    H14      H        0.87570    0.49730    0.05220    1.000
    C16      C        0.51640    0.09870    0.28738    1.000
    H15      H        0.49700    0.14480    0.27940    1.000
    C17      C        0.78570    0.55970    0.11783    1.000
    H16      H        0.78170    0.52000    0.13950    1.000
    H17      H        0.75650    0.54560    0.09220    1.000
    C18      C        0.88190    0.71660    0.21484    1.000
    H18      H        0.92160    0.74680    0.22300    1.000
    C19      C        0.87020    0.73220    0.42120    1.000
    H19      H        0.89940    0.77260    0.41300    1.000
    C20      C        0.85690    0.70790    0.17338    1.000
    H20      H        0.87550    0.73090    0.14810    1.000
    C21      C        0.09620    0.47830    0.07726    1.000
    H21      H        0.14080    0.45200    0.07830    1.000
    N9       N        0.08850    0.02650    0.31475    1.000
    C22      C        0.85230    0.71420    0.46335    1.000
    H22      H        0.86610    0.73920    0.48900    1.000
    C23      C        0.57110    0.86250    0.27220    1.000
    H23      H        0.61900    0.86770    0.28680    1.000
    H24      H        0.57460    0.88780    0.24390    1.000
    C24      C        0.79080    0.64070    0.21832    1.000
    H25      H        0.75470    0.60820    0.22890    1.000
    C25      C        0.51570    0.90020    0.29880    1.000
    H26      H        0.51800    0.88160    0.32890    1.000
    H27      H        0.46660    0.88920    0.28720    1.000
    C26      C        0.55810    0.78160    0.26347    1.000
    H28      H        0.54270    0.75750    0.29070    1.000
    H29      H        0.51810    0.77630    0.24210    1.000
    C27      C        0.02820    0.44790    0.07995    1.000
    H30      H        0.01710    0.39760    0.08260    1.000
    C28      C        0.80260    0.63660    0.41720    1.000
    H31      H        0.77450    0.59740    0.40600    1.000
    N10      N        0.65920    0.78220    0.20712    1.000
    N11      N        0.67692    0.81685    0.13842    1.000
    C29      C        0.72150    0.82540    0.20673    1.000
    H32      H        0.75110    0.83790    0.23090    1.000
    C30      C        0.63340    0.77870    0.16550    1.000
    H33      H        0.59090    0.75300    0.15690    1.000
    C31      C        0.73170    0.84650    0.16436    1.000
    H34      H        0.77010    0.87670    0.15430    1.000
    C32      C        0.71220    0.66700    0.51691    1.000
    H35      H        0.68630    0.64260    0.54060    1.000
    H36      H        0.73810    0.70970    0.52810    1.000
    C33      C        0.76740    0.61530    0.49600    1.000
    H37      H        0.80180    0.59770    0.51840    1.000
    H38      H        0.74140    0.57250    0.48400    1.000
    Cd3      Cd       0.31903    0.83180    0.81251    1.000
    Cd4      Cd       0.14953    0.32706    0.81837    1.000
    O7       O        0.16504    0.19644    0.81397    1.000
    N12      N        0.02140    0.49500    0.57809    1.000
    N13      N        0.20110    0.34120    0.67527    1.000
    O8       O        0.24510    0.93530    0.81576    1.000
    O9       O        0.04540    0.22380    0.81826    1.000
    N14      N        0.90953    0.44720    0.57277    1.000
    C34      C        0.11820    0.96770    0.81143    1.000
    N15      N        0.15990    0.32558    0.74354    1.000
    C35      C        0.00510    0.07330    0.81371    1.000
    H39      H        0.96680    0.10810    0.81380    1.000
    O10      O        0.16460    0.84450    0.80534    1.000
    C36      C        0.98960    0.99810    0.81353    1.000
    C37      C        0.07910    0.09610    0.81379    1.000
    N16      N        0.16050    0.31720    0.89292    1.000
    N17      N        0.47320    0.01860    0.79917    1.000
    N18      N        0.41440    0.91253    0.80388    1.000
    C38      C        0.13470    0.04310    0.81229    1.000
    H40      H        0.18420    0.05830    0.81180    1.000
    C39      C        0.24600    0.36890    0.63746    1.000
    H41      H        0.24770    0.33090    0.61460    1.000
    H42      H        0.29650    0.37800    0.64740    1.000
    C40      C        0.18010    0.91030    0.81073    1.000
    C41      C        0.41030    0.98500    0.81067    1.000
    H43      H        0.36880    0.00930    0.82200    1.000
    C42      C        0.51980    0.96560    0.78419    1.000
    H44      H        0.56790    0.97260    0.77370    1.000
    C43      C        0.13390    0.43180    0.60432    1.000
    H45      H        0.12960    0.38930    0.58470    1.000
    H46      H        0.10440    0.42150    0.63050    1.000
    C44      C        0.04480    0.94480    0.81148    1.000
    H47      H        0.03280    0.89450    0.81020    1.000
    C45      C        0.98110    0.43310    0.57337    1.000
    H48      H        0.00140    0.38570    0.57080    1.000
    N19      N        0.19040    0.34830    0.96039    1.000
    C46      C        0.09680    0.17870    0.81547    1.000
    C47      C        0.37410    0.25570    0.74627    1.000
    H49      H        0.38660    0.30640    0.73820    1.000
    H50      H        0.33730    0.25780    0.76970    1.000
    O11      O        0.86270    0.01940    0.81550    1.000
    O12      O        0.89870    0.90780    0.81520    1.000
    C48      C        0.10300    0.49880    0.58161    1.000
    H51      H        0.11680    0.54310    0.59800    1.000
    H52      H        0.12430    0.50270    0.55220    1.000
    C49      C        0.48360    0.90130    0.78738    1.000
    H53      H        0.50300    0.85520    0.77940    1.000
    C50      C        0.21430    0.44030    0.61783    1.000
    H54      H        0.21830    0.48000    0.63950    1.000
    H55      H        0.24350    0.45440    0.59220    1.000
    C51      C        0.11810    0.28340    0.71484    1.000
    H56      H        0.07840    0.25320    0.72300    1.000
    C52      C        0.12980    0.26780    0.92120    1.000
    H57      H        0.10060    0.22740    0.91300    1.000
    C53      C        0.14310    0.29210    0.67338    1.000
    H58      H        0.12450    0.26910    0.64810    1.000
    C54      C        0.90380    0.52170    0.57726    1.000
    H59      H        0.85920    0.54800    0.57830    1.000
    N20      N        0.91150    0.97350    0.81475    1.000
    C55      C        0.14770    0.28580    0.96335    1.000
    H60      H        0.13390    0.26080    0.98900    1.000
    C56      C        0.42890    0.13750    0.77220    1.000
    H61      H        0.38100    0.13230    0.78680    1.000
    H62      H        0.42540    0.11220    0.74390    1.000
    C57      C        0.20920    0.35930    0.71832    1.000
    H63      H        0.24530    0.39180    0.72890    1.000
    C58      C        0.48430    0.09980    0.79880    1.000
    H64      H        0.48200    0.11840    0.82890    1.000
    H65      H        0.53340    0.11080    0.78720    1.000
    C59      C        0.44190    0.21840    0.76347    1.000
    H66      H        0.45730    0.24250    0.79070    1.000
    H67      H        0.48190    0.22370    0.74210    1.000
    C60      C        0.97180    0.55210    0.57995    1.000
    H68      H        0.98290    0.60240    0.58260    1.000
    C61      C        0.19740    0.36340    0.91720    1.000
    H69      H        0.22550    0.40260    0.90600    1.000
    N21      N        0.34080    0.21780    0.70712    1.000
    N22      N        0.32308    0.18315    0.63842    1.000
    C62      C        0.27850    0.17460    0.70673    1.000
    H70      H        0.24890    0.16210    0.73090    1.000
    C63      C        0.36660    0.22130    0.66550    1.000
    H71      H        0.40910    0.24700    0.65690    1.000
    C64      C        0.26830    0.15350    0.66436    1.000
    H72      H        0.22990    0.12330    0.65430    1.000
    C65      C        0.28780    0.33300    0.01691    1.000
    H73      H        0.31370    0.35740    0.04060    1.000
    H74      H        0.26190    0.29030    0.02810    1.000
    C66      C        0.23260    0.38470    0.99600    1.000
    H75      H        0.19820    0.40230    0.01840    1.000
    H76      H        0.25860    0.42750    0.98400    1.000
    Cd5      Cd       0.33180    0.18097    0.56251    1.000
    Cd6      Cd       0.82706    0.35047    0.56837    1.000
    O13      O        0.69644    0.33496    0.56397    1.000
    N23      N        0.99500    0.47860    0.32809    1.000
    N24      N        0.84120    0.29890    0.42527    1.000
    O14      O        0.43530    0.25490    0.56576    1.000
    O15      O        0.72380    0.45460    0.56826    1.000
    N25      N        0.94720    0.59047    0.32277    1.000
    C67      C        0.46770    0.38180    0.56143    1.000
    N26      N        0.82558    0.34010    0.49354    1.000
    C68      C        0.57330    0.49490    0.56371    1.000
    H77      H        0.60810    0.53320    0.56380    1.000
    O16      O        0.34450    0.33540    0.55534    1.000
    C69      C        0.49810    0.51040    0.56353    1.000
    C70      C        0.59610    0.42090    0.56379    1.000
    N27      N        0.81720    0.33950    0.64292    1.000
    N28      N        0.51860    0.02680    0.54917    1.000
    N29      N        0.41253    0.08560    0.55388    1.000
    C71      C        0.54310    0.36530    0.56229    1.000
    H78      H        0.55830    0.31580    0.56180    1.000
    C72      C        0.86890    0.25400    0.38746    1.000
    H79      H        0.83090    0.25230    0.36460    1.000
    H80      H        0.87800    0.20350    0.39740    1.000
    C73      C        0.41030    0.31990    0.56073    1.000
    C74      C        0.48500    0.08970    0.56067    1.000
    H81      H        0.50930    0.13120    0.57200    1.000
    C75      C        0.46560    0.98020    0.53419    1.000
    H82      H        0.47260    0.93210    0.52370    1.000
    C76      C        0.93180    0.36610    0.35432    1.000
    H83      H        0.88930    0.37040    0.33470    1.000
    H84      H        0.92150    0.39560    0.38050    1.000
    C77      C        0.44480    0.45520    0.56148    1.000
    H85      H        0.39450    0.46720    0.56020    1.000
    C78      C        0.93310    0.51890    0.32337    1.000
    H86      H        0.88570    0.49860    0.32080    1.000
    N30      N        0.84830    0.30960    0.71039    1.000
    C79      C        0.67870    0.40320    0.56547    1.000
    C80      C        0.75570    0.12590    0.49627    1.000
    H87      H        0.80640    0.11340    0.48820    1.000
    H88      H        0.75780    0.16270    0.51970    1.000
    O17      O        0.51940    0.63730    0.56550    1.000
    O18      O        0.40780    0.60130    0.56520    1.000
    C81      C        0.99880    0.39700    0.33161    1.000
    H89      H        0.04310    0.38320    0.34800    1.000
    H90      H        0.00270    0.37570    0.30220    1.000
    C82      C        0.40130    0.01640    0.53738    1.000
    H91      H        0.35520    0.99700    0.52940    1.000
    C83      C        0.94030    0.28570    0.36783    1.000
    H92      H        0.98000    0.28170    0.38950    1.000
    H93      H        0.95440    0.25650    0.34220    1.000
    C84      C        0.78340    0.38190    0.46484    1.000
    H94      H        0.75320    0.42160    0.47300    1.000
    C85      C        0.76780    0.37020    0.67120    1.000
    H95      H        0.72740    0.39940    0.66300    1.000
    C86      C        0.79210    0.35690    0.42338    1.000
    H96      H        0.76910    0.37550    0.39810    1.000
    C87      C        0.02170    0.59620    0.32726    1.000
    H97      H        0.04800    0.64080    0.32830    1.000
    N31      N        0.47350    0.58850    0.56475    1.000
    C88      C        0.78580    0.35230    0.71335    1.000
    H98      H        0.76080    0.36610    0.73900    1.000
    C89      C        0.63750    0.07110    0.52220    1.000
    H99      H        0.63230    0.11900    0.53680    1.000
    H100     H        0.61220    0.07460    0.49390    1.000
    C90      C        0.85930    0.29080    0.46832    1.000
    H101     H        0.89180    0.25470    0.47890    1.000
    C91      C        0.59980    0.01570    0.54880    1.000
    H102     H        0.61840    0.01800    0.57890    1.000
    H103     H        0.61080    0.96660    0.53720    1.000
    C92      C        0.71840    0.05810    0.51347    1.000
    H104     H        0.74250    0.04270    0.54070    1.000
    H105     H        0.72370    0.01810    0.49210    1.000
    C93      C        0.05210    0.52820    0.32995    1.000
    H106     H        0.10240    0.51710    0.33260    1.000
    C94      C        0.86340    0.30260    0.66720    1.000
    H107     H        0.90260    0.27450    0.65600    1.000
    N32      N        0.71780    0.15920    0.45712    1.000
    N33      N        0.68315    0.17692    0.38842    1.000
    C95      C        0.67460    0.22150    0.45673    1.000
    H108     H        0.66210    0.25110    0.48090    1.000
    C96      C        0.72130    0.13340    0.41550    1.000
    H109     H        0.74700    0.09090    0.40690    1.000
    C97      C        0.65350    0.23170    0.41436    1.000
    H110     H        0.62330    0.27010    0.40430    1.000
    C98      C        0.83300    0.21220    0.76691    1.000
    H111     H        0.85740    0.18630    0.79060    1.000
    H112     H        0.79030    0.23810    0.77810    1.000
    C99      C        0.88470    0.26740    0.74600    1.000
    H113     H        0.90230    0.30180    0.76840    1.000
    H114     H        0.92750    0.24140    0.73400    1.000
    Cd7      Cd       0.66820    0.81903    0.06251    1.000
    Cd8      Cd       0.17294    0.64953    0.06837    1.000
    O19      O        0.30356    0.66504    0.06397    1.000
    N34      N        0.00500    0.52140    0.82809    1.000
    N35      N        0.15880    0.70110    0.92527    1.000
    O20      O        0.56470    0.74510    0.06576    1.000
    O21      O        0.27620    0.54540    0.06826    1.000
    N36      N        0.05280    0.40953    0.82277    1.000
    C100     C        0.53230    0.61820    0.06143    1.000
    N37      N        0.17442    0.65990    0.99354    1.000
    C101     C        0.42670    0.50510    0.06371    1.000
    H115     H        0.39190    0.46680    0.06380    1.000
    O22      O        0.65550    0.66460    0.05534    1.000
    C102     C        0.50190    0.48960    0.06353    1.000
    C103     C        0.40390    0.57910    0.06379    1.000
    N38      N        0.18280    0.66050    0.14292    1.000
    N39      N        0.48140    0.97320    0.04917    1.000
    N40      N        0.58747    0.91440    0.05388    1.000
    C104     C        0.45690    0.63470    0.06229    1.000
    H116     H        0.44170    0.68420    0.06180    1.000
    C105     C        0.13110    0.74600    0.88746    1.000
    H117     H        0.16910    0.74770    0.86460    1.000
    H118     H        0.12200    0.79650    0.89740    1.000
    C106     C        0.58970    0.68010    0.06073    1.000
    C107     C        0.51500    0.91030    0.06067    1.000
    H119     H        0.49070    0.86880    0.07200    1.000
    C108     C        0.53440    0.01980    0.03419    1.000
    H120     H        0.52740    0.06790    0.02370    1.000
    C109     C        0.06820    0.63390    0.85432    1.000
    H121     H        0.11070    0.62960    0.83470    1.000
    H122     H        0.07850    0.60440    0.88050    1.000
    C110     C        0.55520    0.54480    0.06148    1.000
    H123     H        0.60550    0.53280    0.06020    1.000
    C111     C        0.06690    0.48110    0.82337    1.000
    H124     H        0.11430    0.50140    0.82080    1.000
    N41      N        0.15170    0.69040    0.21039    1.000
    C112     C        0.32130    0.59680    0.06547    1.000
    C113     C        0.24430    0.87410    0.99627    1.000
    H125     H        0.19360    0.88660    0.98820    1.000
    H126     H        0.24220    0.83730    0.01970    1.000
    O23      O        0.48060    0.36270    0.06550    1.000
    O24      O        0.59220    0.39870    0.06520    1.000
    C114     C        0.00120    0.60300    0.83161    1.000
    H127     H        0.95690    0.61680    0.84800    1.000
    H128     H        0.99730    0.62430    0.80220    1.000
    C115     C        0.59870    0.98360    0.03738    1.000
    H129     H        0.64480    0.00300    0.02940    1.000
    C116     C        0.05970    0.71430    0.86783    1.000
    H130     H        0.02000    0.71830    0.88950    1.000
    H131     H        0.04560    0.74350    0.84220    1.000
    C117     C        0.21660    0.61810    0.96484    1.000
    H132     H        0.24680    0.57840    0.97300    1.000
    C118     C        0.23220    0.62980    0.17120    1.000
    H133     H        0.27260    0.60060    0.16300    1.000
    C119     C        0.20790    0.64310    0.92338    1.000
    H134     H        0.23090    0.62450    0.89810    1.000
    C120     C        0.97830    0.40380    0.82726    1.000
    H135     H        0.95200    0.35920    0.82830    1.000
    N42      N        0.52650    0.41150    0.06475    1.000
    C121     C        0.21420    0.64770    0.21335    1.000
    H136     H        0.23920    0.63390    0.23900    1.000
    C122     C        0.36250    0.92890    0.02220    1.000
    H137     H        0.36770    0.88100    0.03680    1.000
    H138     H        0.38780    0.92540    0.99390    1.000
    C123     C        0.14070    0.70920    0.96832    1.000
    H139     H        0.10820    0.74530    0.97890    1.000
    C124     C        0.40020    0.98430    0.04880    1.000
    H140     H        0.38160    0.98200    0.07890    1.000
    H141     H        0.38920    0.03340    0.03720    1.000
    C125     C        0.28160    0.94190    0.01347    1.000
    H142     H        0.25750    0.95730    0.04070    1.000
    H143     H        0.27630    0.98190    0.99210    1.000
    C126     C        0.94790    0.47180    0.82995    1.000
    H144     H        0.89760    0.48290    0.83260    1.000
    C127     C        0.13660    0.69740    0.16720    1.000
    H145     H        0.09740    0.72550    0.15600    1.000
    N43      N        0.28220    0.84080    0.95712    1.000
    N44      N        0.31685    0.82308    0.88842    1.000
    C128     C        0.32540    0.77850    0.95673    1.000
    H146     H        0.33790    0.74890    0.98090    1.000
    C129     C        0.27870    0.86660    0.91550    1.000
    H147     H        0.25300    0.90910    0.90690    1.000
    C130     C        0.34650    0.76830    0.91436    1.000
    H148     H        0.37670    0.72990    0.90430    1.000
    C131     C        0.16700    0.78780    0.26691    1.000
    H149     H        0.14260    0.81370    0.29060    1.000
    H150     H        0.20970    0.76190    0.27810    1.000
    C132     C        0.11530    0.73260    0.24600    1.000
    H151     H        0.09770    0.69820    0.26840    1.000
    H152     H        0.07250    0.75860    0.23400    1.000
    Cd9      Cd       0.81903    0.66820    0.93750    1.000
    Cd10     Cd       0.64953    0.17294    0.93163    1.000
    O25      O        0.66504    0.30356    0.93603    1.000
    N45      N        0.52140    0.00500    0.17191    1.000
    N46      N        0.70110    0.15880    0.07473    1.000
    O26      O        0.74510    0.56470    0.93424    1.000
    O27      O        0.54540    0.27620    0.93174    1.000
    N47      N        0.40953    0.05280    0.17723    1.000
    C133     C        0.61820    0.53230    0.93857    1.000
    N48      N        0.65990    0.17442    0.00646    1.000
    C134     C        0.50510    0.42670    0.93629    1.000
    H153     H        0.46680    0.39190    0.93620    1.000
    O28      O        0.66460    0.65550    0.94466    1.000
    C135     C        0.48960    0.50190    0.93647    1.000
    C136     C        0.57910    0.40390    0.93621    1.000
    N49      N        0.66050    0.18280    0.85708    1.000
    N50      N        0.97320    0.48140    0.95083    1.000
    N51      N        0.91440    0.58747    0.94612    1.000
    C137     C        0.63470    0.45690    0.93771    1.000
    H154     H        0.68420    0.44170    0.93820    1.000
    C138     C        0.74600    0.13110    0.11254    1.000
    H155     H        0.74770    0.16910    0.13540    1.000
    H156     H        0.79650    0.12200    0.10260    1.000
    C139     C        0.68010    0.58970    0.93927    1.000
    C140     C        0.91030    0.51500    0.93933    1.000
    H157     H        0.86880    0.49070    0.92800    1.000
    C141     C        0.01980    0.53440    0.96581    1.000
    H158     H        0.06790    0.52740    0.97630    1.000
    C142     C        0.63390    0.06820    0.14568    1.000
    H159     H        0.62960    0.11070    0.16530    1.000
    H160     H        0.60440    0.07850    0.11950    1.000
    C143     C        0.54480    0.55520    0.93852    1.000
    H161     H        0.53280    0.60550    0.93980    1.000
    C144     C        0.48110    0.06690    0.17663    1.000
    H162     H        0.50140    0.11430    0.17920    1.000
    N52      N        0.69040    0.15170    0.78961    1.000
    C145     C        0.59680    0.32130    0.93453    1.000
    C146     C        0.87410    0.24430    0.00373    1.000
    H163     H        0.88660    0.19360    0.01180    1.000
    H164     H        0.83730    0.24220    0.98030    1.000
    O29      O        0.36270    0.48060    0.93450    1.000
    O30      O        0.39870    0.59220    0.93480    1.000
    C147     C        0.60300    0.00120    0.16839    1.000
    H165     H        0.61680    0.95690    0.15200    1.000
    H166     H        0.62430    0.99730    0.19780    1.000
    C148     C        0.98360    0.59870    0.96262    1.000
    H167     H        0.00300    0.64480    0.97060    1.000
    C149     C        0.71430    0.05970    0.13217    1.000
    H168     H        0.71830    0.02000    0.11050    1.000
    H169     H        0.74350    0.04560    0.15780    1.000
    C150     C        0.61810    0.21660    0.03516    1.000
    H170     H        0.57840    0.24680    0.02700    1.000
    C151     C        0.62980    0.23220    0.82880    1.000
    H171     H        0.60060    0.27260    0.83700    1.000
    C152     C        0.64310    0.20790    0.07662    1.000
    H172     H        0.62450    0.23090    0.10190    1.000
    C153     C        0.40380    0.97830    0.17274    1.000
    H173     H        0.35920    0.95200    0.17170    1.000
    N53      N        0.41150    0.52650    0.93525    1.000
    C154     C        0.64770    0.21420    0.78665    1.000
    H174     H        0.63390    0.23920    0.76100    1.000
    C155     C        0.92890    0.36250    0.97780    1.000
    H175     H        0.88100    0.36770    0.96320    1.000
    H176     H        0.92540    0.38780    0.00610    1.000
    C156     C        0.70920    0.14070    0.03168    1.000
    H177     H        0.74530    0.10820    0.02110    1.000
    C157     C        0.98430    0.40020    0.95120    1.000
    H178     H        0.98200    0.38160    0.92110    1.000
    H179     H        0.03340    0.38920    0.96280    1.000
    C158     C        0.94190    0.28160    0.98653    1.000
    H180     H        0.95730    0.25750    0.95930    1.000
    H181     H        0.98190    0.27630    0.00790    1.000
    C159     C        0.47180    0.94790    0.17005    1.000
    H182     H        0.48290    0.89760    0.16740    1.000
    C160     C        0.69740    0.13660    0.83280    1.000
    H183     H        0.72550    0.09740    0.84400    1.000
    N54      N        0.84080    0.28220    0.04288    1.000
    N55      N        0.82308    0.31685    0.11158    1.000
    C161     C        0.77850    0.32540    0.04327    1.000
    H184     H        0.74890    0.33790    0.01910    1.000
    C162     C        0.86660    0.27870    0.08450    1.000
    H185     H        0.90910    0.25300    0.09310    1.000
    C163     C        0.76830    0.34650    0.08564    1.000
    H186     H        0.72990    0.37670    0.09570    1.000
    C164     C        0.78780    0.16700    0.73309    1.000
    H187     H        0.81370    0.14260    0.70940    1.000
    H188     H        0.76190    0.20970    0.72190    1.000
    C165     C        0.73260    0.11530    0.75400    1.000
    H189     H        0.69820    0.09770    0.73160    1.000
    H190     H        0.75860    0.07250    0.76600    1.000
    Cd11     Cd       0.18097    0.33180    0.43750    1.000
    Cd12     Cd       0.35047    0.82706    0.43163    1.000
    O31      O        0.33496    0.69644    0.43603    1.000
    N56      N        0.47860    0.99500    0.67191    1.000
    N57      N        0.29890    0.84120    0.57473    1.000
    O32      O        0.25490    0.43530    0.43424    1.000
    O33      O        0.45460    0.72380    0.43174    1.000
    N58      N        0.59047    0.94720    0.67723    1.000
    C166     C        0.38180    0.46770    0.43857    1.000
    N59      N        0.34010    0.82558    0.50646    1.000
    C167     C        0.49490    0.57330    0.43629    1.000
    H191     H        0.53320    0.60810    0.43620    1.000
    O34      O        0.33540    0.34450    0.44466    1.000
    C168     C        0.51040    0.49810    0.43647    1.000
    C169     C        0.42090    0.59610    0.43621    1.000
    N60      N        0.33950    0.81720    0.35708    1.000
    N61      N        0.02680    0.51860    0.45083    1.000
    N62      N        0.08560    0.41253    0.44612    1.000
    C170     C        0.36530    0.54310    0.43771    1.000
    H192     H        0.31580    0.55830    0.43820    1.000
    C171     C        0.25400    0.86890    0.61254    1.000
    H193     H        0.25230    0.83090    0.63540    1.000
    H194     H        0.20350    0.87800    0.60260    1.000
    C172     C        0.31990    0.41030    0.43927    1.000
    C173     C        0.08970    0.48500    0.43933    1.000
    H195     H        0.13120    0.50930    0.42800    1.000
    C174     C        0.98020    0.46560    0.46581    1.000
    H196     H        0.93210    0.47260    0.47630    1.000
    C175     C        0.36610    0.93180    0.64568    1.000
    H197     H        0.37040    0.88930    0.66530    1.000
    H198     H        0.39560    0.92150    0.61950    1.000
    C176     C        0.45520    0.44480    0.43852    1.000
    H199     H        0.46720    0.39450    0.43980    1.000
    C177     C        0.51890    0.93310    0.67663    1.000
    H200     H        0.49860    0.88570    0.67920    1.000
    N63      N        0.30960    0.84830    0.28961    1.000
    C178     C        0.40320    0.67870    0.43453    1.000
    C179     C        0.12590    0.75570    0.50373    1.000
    H201     H        0.11340    0.80640    0.51180    1.000
    H202     H        0.16270    0.75780    0.48030    1.000
    O35      O        0.63730    0.51940    0.43450    1.000
    O36      O        0.60130    0.40780    0.43480    1.000
    C180     C        0.39700    0.99880    0.66839    1.000
    H203     H        0.38320    0.04310    0.65200    1.000
    H204     H        0.37570    0.00270    0.69780    1.000
    C181     C        0.01640    0.40130    0.46262    1.000
    H205     H        0.99700    0.35520    0.47060    1.000
    C182     C        0.28570    0.94030    0.63217    1.000
    H206     H        0.28170    0.98000    0.61050    1.000
    H207     H        0.25650    0.95440    0.65780    1.000
    C183     C        0.38190    0.78340    0.53516    1.000
    H208     H        0.42160    0.75320    0.52700    1.000
    C184     C        0.37020    0.76780    0.32880    1.000
    H209     H        0.39940    0.72740    0.33700    1.000
    C185     C        0.35690    0.79210    0.57662    1.000
    H210     H        0.37550    0.76910    0.60190    1.000
    C186     C        0.59620    0.02170    0.67274    1.000
    H211     H        0.64080    0.04800    0.67170    1.000
    N64      N        0.58850    0.47350    0.43525    1.000
    C187     C        0.35230    0.78580    0.28665    1.000
    H212     H        0.36610    0.76080    0.26100    1.000
    C188     C        0.07110    0.63750    0.47780    1.000
    H213     H        0.11900    0.63230    0.46320    1.000
    H214     H        0.07460    0.61220    0.50610    1.000
    C189     C        0.29080    0.85930    0.53168    1.000
    H215     H        0.25470    0.89180    0.52110    1.000
    C190     C        0.01570    0.59980    0.45120    1.000
    H216     H        0.01800    0.61840    0.42110    1.000
    H217     H        0.96660    0.61080    0.46280    1.000
    C191     C        0.05810    0.71840    0.48653    1.000
    H218     H        0.04270    0.74250    0.45930    1.000
    H219     H        0.01810    0.72370    0.50790    1.000
    C192     C        0.52820    0.05210    0.67005    1.000
    H220     H        0.51710    0.10240    0.66740    1.000
    C193     C        0.30260    0.86340    0.33280    1.000
    H221     H        0.27450    0.90260    0.34400    1.000
    N65      N        0.15920    0.71780    0.54288    1.000
    N66      N        0.17692    0.68315    0.61158    1.000
    C194     C        0.22150    0.67460    0.54327    1.000
    H222     H        0.25110    0.66210    0.51910    1.000
    C195     C        0.13340    0.72130    0.58450    1.000
    H223     H        0.09090    0.74700    0.59310    1.000
    C196     C        0.23170    0.65350    0.58564    1.000
    H224     H        0.27010    0.62330    0.59570    1.000
    C197     C        0.21220    0.83300    0.23309    1.000
    H225     H        0.18630    0.85740    0.20940    1.000
    H226     H        0.23810    0.79030    0.22190    1.000
    C198     C        0.26740    0.88470    0.25400    1.000
    H227     H        0.30180    0.90230    0.23160    1.000
    H228     H        0.24140    0.92750    0.26600    1.000
    Cd13     Cd       0.16820    0.68097    0.68749    1.000
    Cd14     Cd       0.67294    0.85047    0.68163    1.000
    O37      O        0.80356    0.83496    0.68603    1.000
    N67      N        0.50500    0.97860    0.92191    1.000
    N68      N        0.65880    0.79890    0.82473    1.000
    O38      O        0.06470    0.75490    0.68424    1.000
    O39      O        0.77620    0.95460    0.68174    1.000
    N69      N        0.55280    0.09047    0.92723    1.000
    C199     C        0.03230    0.88180    0.68857    1.000
    N70      N        0.67442    0.84010    0.75646    1.000
    C200     C        0.92670    0.99490    0.68629    1.000
    H229     H        0.89190    0.03320    0.68620    1.000
    O40      O        0.15550    0.83540    0.69466    1.000
    C201     C        0.00190    0.01040    0.68647    1.000
    C202     C        0.90390    0.92090    0.68621    1.000
    N71      N        0.68280    0.83950    0.60708    1.000
    N72      N        0.98140    0.52680    0.70083    1.000
    N73      N        0.08747    0.58560    0.69612    1.000
    C203     C        0.95690    0.86530    0.68771    1.000
    H230     H        0.94170    0.81580    0.68820    1.000
    C204     C        0.63110    0.75400    0.86254    1.000
    H231     H        0.66910    0.75230    0.88540    1.000
    H232     H        0.62200    0.70350    0.85260    1.000
    C205     C        0.08970    0.81990    0.68927    1.000
    C206     C        0.01500    0.58970    0.68933    1.000
    H233     H        0.99070    0.63120    0.67800    1.000
    C207     C        0.03440    0.48020    0.71581    1.000
    H234     H        0.02740    0.43210    0.72630    1.000
    C208     C        0.56820    0.86610    0.89568    1.000
    H235     H        0.61070    0.87040    0.91530    1.000
    H236     H        0.57850    0.89560    0.86950    1.000
    C209     C        0.05520    0.95520    0.68852    1.000
    H237     H        0.10550    0.96720    0.68980    1.000
    C210     C        0.56690    0.01890    0.92663    1.000
    H238     H        0.61430    0.99860    0.92920    1.000
    N74      N        0.65170    0.80960    0.53961    1.000
    C211     C        0.82130    0.90320    0.68453    1.000
    C212     C        0.74430    0.62590    0.75373    1.000
    H239     H        0.69360    0.61340    0.76180    1.000
    H240     H        0.74220    0.66270    0.73030    1.000
    O41      O        0.98060    0.13730    0.68450    1.000
    O42      O        0.09220    0.10130    0.68480    1.000
    C213     C        0.50120    0.89700    0.91839    1.000
    H241     H        0.45690    0.88320    0.90200    1.000
    H242     H        0.49730    0.87570    0.94780    1.000
    C214     C        0.09870    0.51640    0.71262    1.000
    H243     H        0.14480    0.49700    0.72060    1.000
    C215     C        0.55970    0.78570    0.88217    1.000
    H244     H        0.52000    0.78170    0.86050    1.000
    H245     H        0.54560    0.75650    0.90780    1.000
    C216     C        0.71660    0.88190    0.78516    1.000
    H246     H        0.74680    0.92160    0.77700    1.000
    C217     C        0.73220    0.87020    0.57880    1.000
    H247     H        0.77260    0.89940    0.58700    1.000
    C218     C        0.70790    0.85690    0.82662    1.000
    H248     H        0.73090    0.87550    0.85190    1.000
    C219     C        0.47830    0.09620    0.92274    1.000
    H249     H        0.45200    0.14080    0.92170    1.000
    N75      N        0.02650    0.08850    0.68525    1.000
    C220     C        0.71420    0.85230    0.53665    1.000
    H250     H        0.73920    0.86610    0.51100    1.000
    C221     C        0.86250    0.57110    0.72780    1.000
    H251     H        0.86770    0.61900    0.71320    1.000
    H252     H        0.88780    0.57460    0.75610    1.000
    C222     C        0.64070    0.79080    0.78168    1.000
    H253     H        0.60820    0.75470    0.77110    1.000
    C223     C        0.90020    0.51570    0.70120    1.000
    H254     H        0.88160    0.51800    0.67110    1.000
    H255     H        0.88920    0.46660    0.71280    1.000
    C224     C        0.78160    0.55810    0.73653    1.000
    H256     H        0.75750    0.54270    0.70930    1.000
    H257     H        0.77630    0.51810    0.75790    1.000
    C225     C        0.44790    0.02820    0.92005    1.000
    H258     H        0.39760    0.01710    0.91740    1.000
    C226     C        0.63660    0.80260    0.58280    1.000
    H259     H        0.59740    0.77450    0.59400    1.000
    N76      N        0.78220    0.65920    0.79288    1.000
    N77      N        0.81685    0.67692    0.86158    1.000
    C227     C        0.82540    0.72150    0.79327    1.000
    H260     H        0.83790    0.75110    0.76910    1.000
    C228     C        0.77870    0.63340    0.83450    1.000
    H261     H        0.75300    0.59090    0.84310    1.000
    C229     C        0.84650    0.73170    0.83564    1.000
    H262     H        0.87670    0.77010    0.84570    1.000
    C230     C        0.66700    0.71220    0.48309    1.000
    H263     H        0.64260    0.68630    0.45940    1.000
    H264     H        0.70970    0.73810    0.47190    1.000
    C231     C        0.61530    0.76740    0.50400    1.000
    H265     H        0.59770    0.80180    0.48160    1.000
    H266     H        0.57250    0.74140    0.51600    1.000
    Cd15     Cd       0.83180    0.31903    0.18749    1.000
    Cd16     Cd       0.32706    0.14953    0.18163    1.000
    O43      O        0.19644    0.16504    0.18603    1.000
    N78      N        0.49500    0.02140    0.42191    1.000
    N79      N        0.34120    0.20110    0.32473    1.000
    O44      O        0.93530    0.24510    0.18424    1.000
    O45      O        0.22380    0.04540    0.18174    1.000
    N80      N        0.44720    0.90953    0.42723    1.000
    C232     C        0.96770    0.11820    0.18857    1.000
    N81      N        0.32558    0.15990    0.25646    1.000
    C233     C        0.07330    0.00510    0.18629    1.000
    H267     H        0.10810    0.96680    0.18620    1.000
    O46      O        0.84450    0.16460    0.19466    1.000
    C234     C        0.99810    0.98960    0.18647    1.000
    C235     C        0.09610    0.07910    0.18621    1.000
    N82      N        0.31720    0.16050    0.10708    1.000
    N83      N        0.01860    0.47320    0.20083    1.000
    N84      N        0.91253    0.41440    0.19612    1.000
    C236     C        0.04310    0.13470    0.18771    1.000
    H268     H        0.05830    0.18420    0.18820    1.000
    C237     C        0.36890    0.24600    0.36254    1.000
    H269     H        0.33090    0.24770    0.38540    1.000
    H270     H        0.37800    0.29650    0.35260    1.000
    C238     C        0.91030    0.18010    0.18927    1.000
    C239     C        0.98500    0.41030    0.18933    1.000
    H271     H        0.00930    0.36880    0.17800    1.000
    C240     C        0.96560    0.51980    0.21581    1.000
    H272     H        0.97260    0.56790    0.22630    1.000
    C241     C        0.43180    0.13390    0.39568    1.000
    H273     H        0.38930    0.12960    0.41530    1.000
    H274     H        0.42150    0.10440    0.36950    1.000
    C242     C        0.94480    0.04480    0.18852    1.000
    H275     H        0.89450    0.03280    0.18980    1.000
    C243     C        0.43310    0.98110    0.42663    1.000
    H276     H        0.38570    0.00140    0.42920    1.000
    N85      N        0.34830    0.19040    0.03961    1.000
    C244     C        0.17870    0.09680    0.18453    1.000
    C245     C        0.25570    0.37410    0.25373    1.000
    H277     H        0.30640    0.38660    0.26180    1.000
    H278     H        0.25780    0.33730    0.23030    1.000
    O47      O        0.01940    0.86270    0.18450    1.000
    O48      O        0.90780    0.89870    0.18480    1.000
    C246     C        0.49880    0.10300    0.41839    1.000
    H279     H        0.54310    0.11680    0.40200    1.000
    H280     H        0.50270    0.12430    0.44780    1.000
    C247     C        0.90130    0.48360    0.21262    1.000
    H281     H        0.85520    0.50300    0.22060    1.000
    C248     C        0.44030    0.21430    0.38217    1.000
    H282     H        0.48000    0.21830    0.36050    1.000
    H283     H        0.45440    0.24350    0.40780    1.000
    C249     C        0.28340    0.11810    0.28516    1.000
    H284     H        0.25320    0.07840    0.27700    1.000
    C250     C        0.26780    0.12980    0.07880    1.000
    H285     H        0.22740    0.10060    0.08700    1.000
    C251     C        0.29210    0.14310    0.32662    1.000
    H286     H        0.26910    0.12450    0.35190    1.000
    C252     C        0.52170    0.90380    0.42274    1.000
    H287     H        0.54800    0.85920    0.42170    1.000
    N86      N        0.97350    0.91150    0.18525    1.000
    C253     C        0.28580    0.14770    0.03665    1.000
    H288     H        0.26080    0.13390    0.01100    1.000
    C254     C        0.13750    0.42890    0.22780    1.000
    H289     H        0.13230    0.38100    0.21320    1.000
    H290     H        0.11220    0.42540    0.25610    1.000
    C255     C        0.35930    0.20920    0.28168    1.000
    H291     H        0.39180    0.24530    0.27110    1.000
    C256     C        0.09980    0.48430    0.20120    1.000
    H292     H        0.11840    0.48200    0.17110    1.000
    H293     H        0.11080    0.53340    0.21280    1.000
    C257     C        0.21840    0.44190    0.23653    1.000
    H294     H        0.24250    0.45730    0.20930    1.000
    H295     H        0.22370    0.48190    0.25790    1.000
    C258     C        0.55210    0.97180    0.42005    1.000
    H296     H        0.60240    0.98290    0.41740    1.000
    C259     C        0.36340    0.19740    0.08280    1.000
    H297     H        0.40260    0.22550    0.09400    1.000
    N87      N        0.21780    0.34080    0.29288    1.000
    N88      N        0.18315    0.32308    0.36158    1.000
    C260     C        0.17460    0.27850    0.29327    1.000
    H298     H        0.16210    0.24890    0.26910    1.000
    C261     C        0.22130    0.36660    0.33450    1.000
    H299     H        0.24700    0.40910    0.34310    1.000
    C262     C        0.15350    0.26830    0.33564    1.000
    H300     H        0.12330    0.22990    0.34570    1.000
    C263     C        0.33300    0.28780    0.98309    1.000
    H301     H        0.35740    0.31370    0.95940    1.000
    H302     H        0.29030    0.26190    0.97190    1.000
    C264     C        0.38470    0.23260    0.00400    1.000
    H303     H        0.40230    0.19820    0.98160    1.000
    H304     H        0.42750    0.25860    0.01600    1.000
