# CIF file generated by openbabel 3.1.0, see https://openbabel.org
data_I
_chemical_name_common 'image0'
_cell_length_a 5.2016
_cell_length_b 13.6024
_cell_length_c 17.2394
_cell_angle_alpha 97.869
_cell_angle_beta 93.302
_cell_angle_gamma 91.828
_space_group_name_H-M_alt 'P 1'
_space_group_name_Hall 'P 1'
loop_
    _symmetry_equiv_pos_as_xyz
    x,y,z
loop_
    _atom_site_label
    _atom_site_type_symbol
    _atom_site_fract_x
    _atom_site_fract_y
    _atom_site_fract_z
    _atom_site_occupancy
    Zn1      Zn       0.16360    0.78326    0.65329    1.000
    Zn2      Zn       0.79540    0.94654    0.57309    1.000
    Zn3      Zn       0.27590    0.62561    0.49954    1.000
    Zn4      Zn       0.78000    0.99650    0.90352    1.000
    P1       P        0.69090    0.87007    0.73309    1.000
    P2       P        0.24900    0.85279    0.48966    1.000
    P3       P        0.81280    0.58769    0.59311    1.000
    P4       P        0.72330    0.88430    0.05105    1.000
    O1       O        0.50400    0.78040    0.70120    1.000
    O2       O        0.96190    0.82690    0.73930    1.000
    O3       O        0.07770    0.64740    0.59720    1.000
    O4       O        0.11890    0.86740    0.56980    1.000
    O5       O        0.53510    0.87580    0.50080    1.000
    O6       O        0.11080    0.91860    0.43770    1.000
    O7       O        0.67970    0.94850    0.67850    1.000
    O8       O        0.63350    0.62380    0.53180    1.000
    O9       O        0.20490    0.74380    0.45160    1.000
    O10      O        0.86260    0.47940    0.57840    1.000
    O11      O        0.82990    0.89170    0.97150    1.000
    O12      O        0.61200    0.91410    0.81400    1.000
    O13      O        0.43770    0.90160    0.05090    1.000
    O14      O        0.88190    0.95070    0.11570    1.000
    O15      O        0.70520    0.60850    0.67640    1.000
    O16      O        0.74480    0.77230    0.06660    1.000
    Zn5      Zn       0.83640    0.21674    0.34671    1.000
    Zn6      Zn       0.20460    0.05346    0.42691    1.000
    Zn7      Zn       0.72410    0.37439    0.50046    1.000
    Zn8      Zn       0.22000    0.00350    0.09648    1.000
    P5       P        0.30910    0.12993    0.26691    1.000
    P6       P        0.75100    0.14721    0.51034    1.000
    P7       P        0.18720    0.41231    0.40689    1.000
    P8       P        0.27670    0.11570    0.94895    1.000
    O17      O        0.49600    0.21960    0.29880    1.000
    O18      O        0.03810    0.17310    0.26070    1.000
    O19      O        0.92230    0.35260    0.40280    1.000
    O20      O        0.88110    0.13260    0.43020    1.000
    O21      O        0.46490    0.12420    0.49920    1.000
    O22      O        0.88920    0.08140    0.56230    1.000
    O23      O        0.32030    0.05150    0.32150    1.000
    O24      O        0.36650    0.37620    0.46820    1.000
    O25      O        0.79510    0.25620    0.54840    1.000
    O26      O        0.13740    0.52060    0.42160    1.000
    O27      O        0.17010    0.10830    0.02850    1.000
    O28      O        0.38800    0.08590    0.18600    1.000
    O29      O        0.56230    0.09840    0.94910    1.000
    O30      O        0.11810    0.04930    0.88430    1.000
    O31      O        0.29480    0.39150    0.32360    1.000
    O32      O        0.25520    0.22770    0.93340    1.000
    N1       N        0.76770    0.19680    0.11870    1.000
    N2       N        0.73100    0.74600    0.36230    1.000
    C1       C        0.69400    0.30180    0.11950    1.000
    C2       C        0.92800    0.36870    0.12300    1.000
    C3       C        0.86100    0.48000    0.13700    1.000
    C4       C        0.74600    0.50980    0.21700    1.000
    C5       C        0.78400    0.61700    0.24840    1.000
    C6       C        0.65000    0.64290    0.32370    1.000
    H1       H        0.60950    0.15240    0.11550    1.000
    H2       H        0.87410    0.19090    0.16800    1.000
    H3       H        0.87050    0.17690    0.07230    1.000
    H4       H        0.64100    0.76240    0.41190    1.000
    H5       H        0.92200    0.74980    0.37460    1.000
    H6       H        0.68500    0.79450    0.32560    1.000
    H7       H        0.59200    0.32190    0.16590    1.000
    H8       H        0.58800    0.30790    0.07030    1.000
    H9       H        0.04400    0.35550    0.16830    1.000
    H10      H        0.01800    0.35400    0.07330    1.000
    H11      H        0.02000    0.52300    0.13500    1.000
    H12      H        0.73100    0.49200    0.09500    1.000
    H13      H        0.83100    0.47070    0.25500    1.000
    H14      H        0.55700    0.49260    0.21100    1.000
    H15      H        0.97300    0.63350    0.25890    1.000
    H16      H        0.71300    0.65690    0.20810    1.000
    H17      H        0.69600    0.59440    0.36040    1.000
    H18      H        0.45900    0.63910    0.31150    1.000
    N3       N        0.23230    0.80320    0.88130    1.000
    N4       N        0.26900    0.25400    0.63770    1.000
    C7       C        0.30600    0.69820    0.88050    1.000
    C8       C        0.07200    0.63130    0.87700    1.000
    C9       C        0.13900    0.52000    0.86300    1.000
    C10      C        0.25400    0.49020    0.78300    1.000
    C11      C        0.21600    0.38300    0.75160    1.000
    C12      C        0.35000    0.35710    0.67630    1.000
    H19      H        0.39050    0.84760    0.88450    1.000
    H20      H        0.12590    0.80910    0.83200    1.000
    H21      H        0.12950    0.82310    0.92770    1.000
    H22      H        0.35900    0.23760    0.58810    1.000
    H23      H        0.07800    0.25020    0.62540    1.000
    H24      H        0.31500    0.20550    0.67440    1.000
    H25      H        0.40800    0.67810    0.83410    1.000
    H26      H        0.41200    0.69210    0.92970    1.000
    H27      H        0.95600    0.64450    0.83170    1.000
    H28      H        0.98200    0.64600    0.92670    1.000
    H29      H        0.98000    0.47700    0.86500    1.000
    H30      H        0.26900    0.50800    0.90500    1.000
    H31      H        0.16900    0.52930    0.74500    1.000
    H32      H        0.44300    0.50740    0.78900    1.000
    H33      H        0.02700    0.36650    0.74110    1.000
    H34      H        0.28700    0.34310    0.79190    1.000
    H35      H        0.30400    0.40560    0.63960    1.000
    H36      H        0.54100    0.36090    0.68850    1.000
