# CIF file generated by openbabel 3.1.0, see https://openbabel.org
data_I
_chemical_name_common 'image0'
_cell_length_a 13.103
_cell_length_b 30.424
_cell_length_c 23.434
_cell_angle_alpha 90
_cell_angle_beta 101.392
_cell_angle_gamma 90
_space_group_name_H-M_alt 'P 1'
_space_group_name_Hall 'P 1'
loop_
    _symmetry_equiv_pos_as_xyz
    x,y,z
loop_
    _atom_site_label
    _atom_site_type_symbol
    _atom_site_fract_x
    _atom_site_fract_y
    _atom_site_fract_z
    _atom_site_occupancy
    Gd1      Gd       0.14953    0.23067    0.27149    1.000
    Gd2      Gd       0.84782    0.25831    0.20341    1.000
    O1       O        0.09230    0.22773    0.36266    1.000
    O2       O        0.95660    0.24378    0.29406    1.000
    O3       O        0.53400    0.25868    0.68147    1.000
    O4       O        0.41880    0.22641    0.61350    1.000
    O5       O        0.63610    0.28720    0.35820    1.000
    O6       O        0.63670    0.29600    0.44780    1.000
    O7       O        0.87690    0.17560    0.56490    1.000
    O8       O        0.03200    0.18590    0.55420    1.000
    O9       O        0.69780    0.16125    0.44520    1.000
    O10      O        0.53360    0.17538    0.43530    1.000
    O11      O        0.91780    0.28070    0.57410    1.000
    O12      O        0.81820    0.33084    0.59590    1.000
    O13      O        0.11130    0.30693    0.28463    1.000
    O14      O        0.96060    0.32137    0.22301    1.000
    O15      O        0.25240    0.66398    0.18296    1.000
    O16      O        0.25070    0.67867    0.27497    1.000
    O17      O        0.87050    0.46841    0.16616    1.000
    O18      O        0.93810    0.52316    0.21850    1.000
    O19      O        0.35940    0.42344    0.32550    1.000
    O20      O        0.31240    0.49068    0.32790    1.000
    O21      O        0.07900    0.50355    0.36040    1.000
    O22      O        0.13080    0.56685    0.39350    1.000
    O23      O        0.18100    0.46549    0.16300    1.000
    O24      O        0.13540    0.51979    0.10540    1.000
    O25      O        0.04290    0.16615    0.25259    1.000
    O26      O        0.88020    0.18005    0.20505    1.000
    O27      O        0.75860    0.82388    0.33111    1.000
    O28      O        0.72360    0.81334    0.23549    1.000
    O29      O        0.12260    0.02020    0.33290    1.000
    O30      O        0.06350    0.96705    0.27530    1.000
    O31      O        0.63270    0.06384    0.17440    1.000
    O32      O        0.67400    0.99586    0.18840    1.000
    O33      O        0.82910    0.02350    0.34520    1.000
    O34      O        0.89320    0.97002    0.40180    1.000
    O35      O        0.89610    0.98246    0.13900    1.000
    O36      O        0.85800    0.91880    0.11380    1.000
    N1       N        0.67440    0.28208    0.40800    1.000
    N2       N        0.93960    0.19162    0.53870    1.000
    N3       N        0.62490    0.17922    0.46040    1.000
    N4       N        0.83140    0.29550    0.57770    1.000
    N5       N        0.93640    0.48460    0.20480    1.000
    N6       N        0.29330    0.45264    0.31560    1.000
    N7       N        0.11650    0.53953    0.35500    1.000
    N8       N        0.16070    0.50407    0.15410    1.000
    N9       N        0.06070    0.00466    0.29080    1.000
    N10      N        0.69600    0.03469    0.18960    1.000
    N11      N        0.85550    0.98546    0.35390    1.000
    N12      N        0.86520    0.94719    0.14820    1.000
    C1       C        0.99730    0.23583    0.34660    1.000
    C2       C        0.93000    0.23714    0.39120    1.000
    C3       C        0.83400    0.25757    0.37980    1.000
    H1       H        0.81020    0.27110    0.34410    1.000
    C4       C        0.77340    0.25774    0.42200    1.000
    C5       C        0.80370    0.23643    0.47590    1.000
    C6       C        0.90090    0.21663    0.48560    1.000
    C7       C        0.96550    0.21750    0.44500    1.000
    H2       H        0.03160    0.20510    0.45380    1.000
    C8       C        0.73280    0.23548    0.51910    1.000
    C9       C        0.64540    0.20884    0.51080    1.000
    C10      C        0.57230    0.21018    0.54600    1.000
    H3       H        0.51420    0.19200    0.53860    1.000
    C11      C        0.58730    0.23931    0.59290    1.000
    C12      C        0.67150    0.26683    0.60230    1.000
    H4       H        0.68060    0.28690    0.63280    1.000
    C13      C        0.74330    0.26464    0.56600    1.000
    C14      C        0.50720    0.24132    0.63170    1.000
    C15      C        0.04390    0.33192    0.25640    1.000
    C16      C        0.06750    0.38084    0.26120    1.000
    C17      C        0.99330    0.41082    0.23430    1.000
    H5       H        0.92800    0.40130    0.21530    1.000
    C18      C        0.01780    0.45498    0.23620    1.000
    C19      C        0.11380    0.47167    0.26280    1.000
    C20      C        0.18600    0.43998    0.28930    1.000
    C21      C        0.16270    0.39523    0.28920    1.000
    H6       H        0.21190    0.37540    0.30820    1.000
    C22      C        0.14190    0.51901    0.25540    1.000
    C23      C        0.14430    0.55128    0.29910    1.000
    C24      C        0.17230    0.59413    0.29180    1.000
    H7       H        0.17460    0.61430    0.32190    1.000
    C25      C        0.19700    0.60735    0.23970    1.000
    C26      C        0.19030    0.57756    0.19470    1.000
    H8       H        0.20340    0.58640    0.15890    1.000
    C27      C        0.16400    0.53413    0.20350    1.000
    C28      C        0.23420    0.65317    0.23190    1.000
    C29      C        0.95270    0.15556    0.22960    1.000
    C30      C        0.92670    0.10665    0.23050    1.000
    C31      C        0.00220    0.07764    0.25680    1.000
    H9       H        0.06920    0.08750    0.27200    1.000
    C32      C        0.97750    0.03356    0.26040    1.000
    C33      C        0.87830    0.01642    0.23900    1.000
    C34      C        0.80500    0.04753    0.21370    1.000
    C35      C        0.82820    0.09185    0.20910    1.000
    H10      H        0.77680    0.11130    0.19160    1.000
    C36      C        0.85390    0.96934    0.24910    1.000
    C37      C        0.84160    0.95472    0.30330    1.000
    C38      C        0.81670    0.91189    0.31460    1.000
    H11      H        0.81240    0.90350    0.35220    1.000
    C39      C        0.79830    0.88162    0.26990    1.000
    C40      C        0.81430    0.89391    0.21520    1.000
    H12      H        0.80470    0.87370    0.18490    1.000
    C41      C        0.84460    0.93631    0.20630    1.000
    C42      C        0.75820    0.83626    0.27940    1.000
    Gd3      Gd       0.35047    0.73067    0.22851    1.000
    Gd4      Gd       0.65218    0.75831    0.29659    1.000
    O37      O        0.40770    0.72773    0.13734    1.000
    O38      O        0.54340    0.74378    0.20594    1.000
    O39      O        0.96600    0.75868    0.81853    1.000
    O40      O        0.08120    0.72641    0.88650    1.000
    O41      O        0.86390    0.78720    0.14180    1.000
    O42      O        0.86330    0.79600    0.05220    1.000
    O43      O        0.62310    0.67560    0.93510    1.000
    O44      O        0.46800    0.68590    0.94580    1.000
    O45      O        0.80220    0.66125    0.05480    1.000
    O46      O        0.96640    0.67538    0.06470    1.000
    O47      O        0.58220    0.78070    0.92590    1.000
    O48      O        0.68180    0.83084    0.90410    1.000
    O49      O        0.38870    0.80693    0.21537    1.000
    O50      O        0.53940    0.82137    0.27699    1.000
    O51      O        0.24760    0.16398    0.31704    1.000
    O52      O        0.24930    0.17867    0.22503    1.000
    O53      O        0.62950    0.96841    0.33384    1.000
    O54      O        0.56190    0.02316    0.28150    1.000
    O55      O        0.14060    0.92344    0.17450    1.000
    O56      O        0.18760    0.99068    0.17210    1.000
    O57      O        0.42100    0.00355    0.13960    1.000
    O58      O        0.36920    0.06685    0.10650    1.000
    O59      O        0.31900    0.96549    0.33700    1.000
    O60      O        0.36460    0.01979    0.39460    1.000
    O61      O        0.45710    0.66615    0.24741    1.000
    O62      O        0.61980    0.68005    0.29495    1.000
    O63      O        0.74140    0.32388    0.16889    1.000
    O64      O        0.77640    0.31334    0.26451    1.000
    O65      O        0.37740    0.52020    0.16710    1.000
    O66      O        0.43650    0.46705    0.22470    1.000
    O67      O        0.86730    0.56384    0.32560    1.000
    O68      O        0.82600    0.49586    0.31160    1.000
    O69      O        0.67090    0.52350    0.15480    1.000
    O70      O        0.60680    0.47002    0.09820    1.000
    O71      O        0.60390    0.48246    0.36100    1.000
    O72      O        0.64200    0.41880    0.38620    1.000
    N13      N        0.82560    0.78208    0.09200    1.000
    N14      N        0.56040    0.69162    0.96130    1.000
    N15      N        0.87510    0.67922    0.03960    1.000
    N16      N        0.66860    0.79550    0.92230    1.000
    N17      N        0.56360    0.98460    0.29520    1.000
    N18      N        0.20670    0.95264    0.18440    1.000
    N19      N        0.38350    0.03953    0.14500    1.000
    N20      N        0.33930    0.00407    0.34590    1.000
    N21      N        0.43930    0.50466    0.20920    1.000
    N22      N        0.80400    0.53469    0.31040    1.000
    N23      N        0.64450    0.48546    0.14610    1.000
    N24      N        0.63480    0.44719    0.35180    1.000
    C43      C        0.50270    0.73583    0.15340    1.000
    C44      C        0.57000    0.73714    0.10880    1.000
    C45      C        0.66600    0.75757    0.12020    1.000
    H13      H        0.68980    0.77110    0.15590    1.000
    C46      C        0.72660    0.75774    0.07800    1.000
    C47      C        0.69630    0.73643    0.02410    1.000
    C48      C        0.59910    0.71663    0.01440    1.000
    C49      C        0.53450    0.71750    0.05500    1.000
    H14      H        0.46840    0.70510    0.04620    1.000
    C50      C        0.76720    0.73548    0.98090    1.000
    C51      C        0.85460    0.70884    0.98920    1.000
    C52      C        0.92770    0.71018    0.95400    1.000
    H15      H        0.98580    0.69200    0.96140    1.000
    C53      C        0.91270    0.73931    0.90710    1.000
    C54      C        0.82850    0.76683    0.89770    1.000
    H16      H        0.81940    0.78690    0.86720    1.000
    C55      C        0.75670    0.76464    0.93400    1.000
    C56      C        0.99280    0.74132    0.86830    1.000
    C57      C        0.45610    0.83192    0.24360    1.000
    C58      C        0.43250    0.88084    0.23880    1.000
    C59      C        0.50670    0.91082    0.26570    1.000
    H17      H        0.57200    0.90130    0.28470    1.000
    C60      C        0.48220    0.95498    0.26380    1.000
    C61      C        0.38620    0.97167    0.23720    1.000
    C62      C        0.31400    0.93998    0.21070    1.000
    C63      C        0.33730    0.89523    0.21080    1.000
    H18      H        0.28810    0.87540    0.19180    1.000
    C64      C        0.35810    0.01901    0.24460    1.000
    C65      C        0.35570    0.05128    0.20090    1.000
    C66      C        0.32770    0.09413    0.20820    1.000
    H19      H        0.32540    0.11430    0.17810    1.000
    C67      C        0.30300    0.10735    0.26030    1.000
    C68      C        0.30970    0.07756    0.30530    1.000
    H20      H        0.29660    0.08640    0.34110    1.000
    C69      C        0.33600    0.03413    0.29650    1.000
    C70      C        0.26580    0.15317    0.26810    1.000
    C71      C        0.54730    0.65556    0.27040    1.000
    C72      C        0.57330    0.60665    0.26950    1.000
    C73      C        0.49780    0.57764    0.24320    1.000
    H21      H        0.43080    0.58750    0.22800    1.000
    C74      C        0.52250    0.53356    0.23960    1.000
    C75      C        0.62170    0.51642    0.26100    1.000
    C76      C        0.69500    0.54753    0.28630    1.000
    C77      C        0.67180    0.59185    0.29090    1.000
    H22      H        0.72320    0.61130    0.30840    1.000
    C78      C        0.64610    0.46934    0.25090    1.000
    C79      C        0.65840    0.45472    0.19670    1.000
    C80      C        0.68330    0.41189    0.18540    1.000
    H23      H        0.68760    0.40350    0.14780    1.000
    C81      C        0.70170    0.38162    0.23010    1.000
    C82      C        0.68570    0.39391    0.28480    1.000
    H24      H        0.69530    0.37370    0.31510    1.000
    C83      C        0.65540    0.43631    0.29370    1.000
    C84      C        0.74180    0.33626    0.22060    1.000
    Gd5      Gd       0.85047    0.76933    0.72851    1.000
    Gd6      Gd       0.15218    0.74169    0.79659    1.000
    O73      O        0.90770    0.77227    0.63734    1.000
    O74      O        0.04340    0.75622    0.70594    1.000
    O75      O        0.46600    0.74132    0.31853    1.000
    O76      O        0.58120    0.77359    0.38650    1.000
    O77      O        0.36390    0.71280    0.64180    1.000
    O78      O        0.36330    0.70400    0.55220    1.000
    O79      O        0.12310    0.82440    0.43510    1.000
    O80      O        0.96800    0.81410    0.44580    1.000
    O81      O        0.30220    0.83875    0.55480    1.000
    O82      O        0.46640    0.82462    0.56470    1.000
    O83      O        0.08220    0.71930    0.42590    1.000
    O84      O        0.18180    0.66916    0.40410    1.000
    O85      O        0.88870    0.69307    0.71537    1.000
    O86      O        0.03940    0.67863    0.77699    1.000
    O87      O        0.74760    0.33602    0.81704    1.000
    O88      O        0.74930    0.32133    0.72503    1.000
    O89      O        0.12950    0.53159    0.83384    1.000
    O90      O        0.06190    0.47684    0.78150    1.000
    O91      O        0.64060    0.57656    0.67450    1.000
    O92      O        0.68760    0.50932    0.67210    1.000
    O93      O        0.92100    0.49645    0.63960    1.000
    O94      O        0.86920    0.43315    0.60650    1.000
    O95      O        0.81900    0.53451    0.83700    1.000
    O96      O        0.86460    0.48021    0.89460    1.000
    O97      O        0.95710    0.83385    0.74741    1.000
    O98      O        0.11980    0.81995    0.79495    1.000
    O99      O        0.24140    0.17612    0.66889    1.000
    O100     O        0.27640    0.18666    0.76451    1.000
    O101     O        0.87740    0.97980    0.66710    1.000
    O102     O        0.93650    0.03295    0.72470    1.000
    O103     O        0.36730    0.93616    0.82560    1.000
    O104     O        0.32600    0.00414    0.81160    1.000
    O105     O        0.17090    0.97650    0.65480    1.000
    O106     O        0.10680    0.02998    0.59820    1.000
    O107     O        0.10390    0.01754    0.86100    1.000
    O108     O        0.14200    0.08120    0.88620    1.000
    N25      N        0.32560    0.71792    0.59200    1.000
    N26      N        0.06040    0.80838    0.46130    1.000
    N27      N        0.37510    0.82078    0.53960    1.000
    N28      N        0.16860    0.70450    0.42230    1.000
    N29      N        0.06360    0.51540    0.79520    1.000
    N30      N        0.70670    0.54736    0.68440    1.000
    N31      N        0.88350    0.46047    0.64500    1.000
    N32      N        0.83930    0.49593    0.84590    1.000
    N33      N        0.93930    0.99534    0.70920    1.000
    N34      N        0.30400    0.96531    0.81040    1.000
    N35      N        0.14450    0.01454    0.64610    1.000
    N36      N        0.13480    0.05281    0.85180    1.000
    C85      C        0.00270    0.76417    0.65340    1.000
    C86      C        0.07000    0.76286    0.60880    1.000
    C87      C        0.16600    0.74243    0.62020    1.000
    H25      H        0.18980    0.72890    0.65590    1.000
    C88      C        0.22660    0.74226    0.57800    1.000
    C89      C        0.19630    0.76357    0.52410    1.000
    C90      C        0.09910    0.78337    0.51440    1.000
    C91      C        0.03450    0.78250    0.55500    1.000
    H26      H        0.96840    0.79490    0.54620    1.000
    C92      C        0.26720    0.76452    0.48090    1.000
    C93      C        0.35460    0.79116    0.48920    1.000
    C94      C        0.42770    0.78982    0.45400    1.000
    H27      H        0.48580    0.80800    0.46140    1.000
    C95      C        0.41270    0.76069    0.40710    1.000
    C96      C        0.32850    0.73317    0.39770    1.000
    H28      H        0.31940    0.71310    0.36720    1.000
    C97      C        0.25670    0.73536    0.43400    1.000
    C98      C        0.49280    0.75868    0.36830    1.000
    C99      C        0.95610    0.66808    0.74360    1.000
    C100     C        0.93250    0.61916    0.73880    1.000
    C101     C        0.00670    0.58918    0.76570    1.000
    H29      H        0.07200    0.59870    0.78470    1.000
    C102     C        0.98220    0.54502    0.76380    1.000
    C103     C        0.88620    0.52833    0.73720    1.000
    C104     C        0.81400    0.56002    0.71070    1.000
    C105     C        0.83730    0.60477    0.71080    1.000
    H30      H        0.78810    0.62460    0.69180    1.000
    C106     C        0.85810    0.48099    0.74460    1.000
    C107     C        0.85570    0.44872    0.70090    1.000
    C108     C        0.82770    0.40587    0.70820    1.000
    H31      H        0.82540    0.38570    0.67810    1.000
    C109     C        0.80300    0.39265    0.76030    1.000
    C110     C        0.80970    0.42244    0.80530    1.000
    H32      H        0.79660    0.41360    0.84110    1.000
    C111     C        0.83600    0.46587    0.79650    1.000
    C112     C        0.76580    0.34683    0.76810    1.000
    C113     C        0.04730    0.84444    0.77040    1.000
    C114     C        0.07330    0.89335    0.76950    1.000
    C115     C        0.99780    0.92236    0.74320    1.000
    H33      H        0.93080    0.91250    0.72800    1.000
    C116     C        0.02250    0.96644    0.73960    1.000
    C117     C        0.12170    0.98358    0.76100    1.000
    C118     C        0.19500    0.95247    0.78630    1.000
    C119     C        0.17180    0.90815    0.79090    1.000
    H34      H        0.22320    0.88870    0.80840    1.000
    C120     C        0.14610    0.03066    0.75090    1.000
    C121     C        0.15840    0.04528    0.69670    1.000
    C122     C        0.18330    0.08811    0.68540    1.000
    H35      H        0.18760    0.09650    0.64780    1.000
    C123     C        0.20170    0.11838    0.73010    1.000
    C124     C        0.18570    0.10609    0.78480    1.000
    H36      H        0.19530    0.12630    0.81510    1.000
    C125     C        0.15540    0.06369    0.79370    1.000
    C126     C        0.24180    0.16374    0.72060    1.000
    Gd7      Gd       0.64953    0.26933    0.77149    1.000
    Gd8      Gd       0.34782    0.24169    0.70341    1.000
    O109     O        0.59230    0.27227    0.86266    1.000
    O110     O        0.45660    0.25622    0.79406    1.000
    O111     O        0.03400    0.24132    0.18147    1.000
    O112     O        0.91880    0.27359    0.11350    1.000
    O113     O        0.13610    0.21280    0.85820    1.000
    O114     O        0.13670    0.20400    0.94780    1.000
    O115     O        0.37690    0.32440    0.06490    1.000
    O116     O        0.53200    0.31410    0.05420    1.000
    O117     O        0.19780    0.33875    0.94520    1.000
    O118     O        0.03360    0.32462    0.93530    1.000
    O119     O        0.41780    0.21930    0.07410    1.000
    O120     O        0.31820    0.16916    0.09590    1.000
    O121     O        0.61130    0.19307    0.78463    1.000
    O122     O        0.46060    0.17863    0.72301    1.000
    O123     O        0.75240    0.83602    0.68296    1.000
    O124     O        0.75070    0.82133    0.77497    1.000
    O125     O        0.37050    0.03159    0.66616    1.000
    O126     O        0.43810    0.97684    0.71850    1.000
    O127     O        0.85940    0.07656    0.82550    1.000
    O128     O        0.81240    0.00932    0.82790    1.000
    O129     O        0.57900    0.99645    0.86040    1.000
    O130     O        0.63080    0.93315    0.89350    1.000
    O131     O        0.68100    0.03451    0.66300    1.000
    O132     O        0.63540    0.98021    0.60540    1.000
    O133     O        0.54290    0.33385    0.75259    1.000
    O134     O        0.38020    0.31995    0.70505    1.000
    O135     O        0.25860    0.67612    0.83111    1.000
    O136     O        0.22360    0.68666    0.73549    1.000
    O137     O        0.62260    0.47980    0.83290    1.000
    O138     O        0.56350    0.53295    0.77530    1.000
    O139     O        0.13270    0.43616    0.67440    1.000
    O140     O        0.17400    0.50414    0.68840    1.000
    O141     O        0.32910    0.47650    0.84520    1.000
    O142     O        0.39320    0.52998    0.90180    1.000
    O143     O        0.39610    0.51754    0.63900    1.000
    O144     O        0.35800    0.58120    0.61380    1.000
    N37      N        0.17440    0.21792    0.90800    1.000
    N38      N        0.43960    0.30838    0.03870    1.000
    N39      N        0.12490    0.32078    0.96040    1.000
    N40      N        0.33140    0.20450    0.07770    1.000
    N41      N        0.43640    0.01540    0.70480    1.000
    N42      N        0.79330    0.04736    0.81560    1.000
    N43      N        0.61650    0.96047    0.85500    1.000
    N44      N        0.66070    0.99593    0.65410    1.000
    N45      N        0.56070    0.49534    0.79080    1.000
    N46      N        0.19600    0.46531    0.68960    1.000
    N47      N        0.35550    0.51454    0.85390    1.000
    N48      N        0.36520    0.55281    0.64820    1.000
    C127     C        0.49730    0.26417    0.84660    1.000
    C128     C        0.43000    0.26286    0.89120    1.000
    C129     C        0.33400    0.24243    0.87980    1.000
    H37      H        0.31020    0.22890    0.84410    1.000
    C130     C        0.27340    0.24226    0.92200    1.000
    C131     C        0.30370    0.26357    0.97590    1.000
    C132     C        0.40090    0.28337    0.98560    1.000
    C133     C        0.46550    0.28250    0.94500    1.000
    H38      H        0.53160    0.29490    0.95380    1.000
    C134     C        0.23280    0.26452    0.01910    1.000
    C135     C        0.14540    0.29116    0.01080    1.000
    C136     C        0.07230    0.28982    0.04600    1.000
    H39      H        0.01420    0.30800    0.03860    1.000
    C137     C        0.08730    0.26069    0.09290    1.000
    C138     C        0.17150    0.23317    0.10230    1.000
    H40      H        0.18060    0.21310    0.13280    1.000
    C139     C        0.24330    0.23536    0.06600    1.000
    C140     C        0.00720    0.25868    0.13170    1.000
    C141     C        0.54390    0.16808    0.75640    1.000
    C142     C        0.56750    0.11916    0.76120    1.000
    C143     C        0.49330    0.08918    0.73430    1.000
    H41      H        0.42800    0.09870    0.71530    1.000
    C144     C        0.51780    0.04502    0.73620    1.000
    C145     C        0.61380    0.02833    0.76280    1.000
    C146     C        0.68600    0.06002    0.78930    1.000
    C147     C        0.66270    0.10477    0.78920    1.000
    H42      H        0.71190    0.12460    0.80820    1.000
    C148     C        0.64190    0.98099    0.75540    1.000
    C149     C        0.64430    0.94872    0.79910    1.000
    C150     C        0.67230    0.90587    0.79180    1.000
    H43      H        0.67460    0.88570    0.82190    1.000
    C151     C        0.69700    0.89265    0.73970    1.000
    C152     C        0.69030    0.92244    0.69470    1.000
    H44      H        0.70340    0.91360    0.65890    1.000
    C153     C        0.66400    0.96587    0.70350    1.000
    C154     C        0.73420    0.84683    0.73190    1.000
    C155     C        0.45270    0.34444    0.72960    1.000
    C156     C        0.42670    0.39335    0.73050    1.000
    C157     C        0.50220    0.42236    0.75680    1.000
    H45      H        0.56920    0.41250    0.77200    1.000
    C158     C        0.47750    0.46644    0.76040    1.000
    C159     C        0.37830    0.48358    0.73900    1.000
    C160     C        0.30500    0.45247    0.71370    1.000
    C161     C        0.32820    0.40815    0.70910    1.000
    H46      H        0.27680    0.38870    0.69160    1.000
    C162     C        0.35390    0.53066    0.74910    1.000
    C163     C        0.34160    0.54528    0.80330    1.000
    C164     C        0.31670    0.58811    0.81460    1.000
    H47      H        0.31240    0.59650    0.85220    1.000
    C165     C        0.29830    0.61838    0.76990    1.000
    C166     C        0.31430    0.60609    0.71520    1.000
    H48      H        0.30470    0.62630    0.68490    1.000
    C167     C        0.34460    0.56369    0.70630    1.000
    C168     C        0.25820    0.66374    0.77940    1.000
