# CIF file generated by openbabel 3.1.0, see https://openbabel.org
data_I
_chemical_name_common 'ja406030p_si_002_clean'
_cell_length_a 19.2095
_cell_length_b 19.2095
_cell_length_c 36.0245
_cell_angle_alpha 90
_cell_angle_beta 90
_cell_angle_gamma 120
_space_group_name_H-M_alt 'P 63/m m c'
_space_group_name_Hall '-P 6c 2c'
loop_
    _symmetry_equiv_pos_as_xyz
    x,y,z
    -y,x-y,z
    -x+y,-x,z
    -x,-y,1/2+z
    y,-x+y,1/2+z
    x-y,x,1/2+z
    y,x,-z
    x-y,-y,-z
    -x,-x+y,-z
    -y,-x,1/2-z
    -x+y,y,1/2-z
    x,x-y,1/2-z
    -x,-y,-z
    y,-x+y,-z
    x-y,x,-z
    x,y,1/2-z
    -y,x-y,1/2-z
    -x+y,-x,1/2-z
    -y,-x,z
    -x+y,y,z
    x,x-y,z
    y,x,1/2+z
    x-y,-y,1/2+z
    -x,-x+y,1/2+z
loop_
    _atom_site_label
    _atom_site_type_symbol
    _atom_site_fract_x
    _atom_site_fract_y
    _atom_site_fract_z
    _atom_site_occupancy
    H3       H        0.92300    0.28470    0.41950    1.000
    H4       H        0.32570    0.46750    0.15250    1.000
    H5       H        0.44560    0.35440    0.90750    1.000
    C1       C        0.74930    0.12800    0.07020    1.000
    C6       C        0.62670    0.13260    0.64070    1.000
    C7       C        0.90290    0.54610    0.47648    1.000
    C8       C        0.43000    0.15310    0.04055    1.000
    C14      C        0.49340    0.10250    0.60473    1.000
    O1       O        0.11378    0.48361    0.00836    1.000
    O5       O        0.59385    0.03796    0.04259    1.000
    O8       O        0.34079    0.54282    0.28975    1.000
    Zn1      Zn       0.52333    0.04666    0.96536    1.000
    Br4      Br       0.85788    0.71576    0.12820    1.000
    Cr1      Cr       0.27580    0.55160    0.25000    1.000
    H2       H        0.47200    0.23600    0.49970    1.000
    C2       C        0.44748    0.22374    0.47621    1.000
    C3       C        0.40605    0.59395    0.19650    1.000
    C12      C        0.82440    0.17560    0.41450    1.000
    C64      C        0.42590    0.85180    0.34158    1.000
    N1       N        0.45535    0.91070    0.08733    1.000
    O17      O        0.33333    0.66667    0.25000    1.000
