# CIF file generated by openbabel 3.1.0, see https://openbabel.org
data_I
_chemical_name_common 'image0'
_cell_length_a 17.1623
_cell_length_b 13.156
_cell_length_c 12.8631
_cell_angle_alpha 90
_cell_angle_beta 90
_cell_angle_gamma 90
_space_group_name_H-M_alt 'P 1'
_space_group_name_Hall 'P 1'
loop_
    _symmetry_equiv_pos_as_xyz
    x,y,z
loop_
    _atom_site_label
    _atom_site_type_symbol
    _atom_site_fract_x
    _atom_site_fract_y
    _atom_site_fract_z
    _atom_site_occupancy
    N1       N        0.07520    0.59750    0.83100    1.000
    N2       N        0.05130    0.54150    0.91290    1.000
    N3       N        0.08450    0.43850    0.78700    1.000
    C1       C        0.09320    0.53440    0.75630    1.000
    H1       H        0.11000    0.55410    0.68980    1.000
    C2       C        0.05720    0.44580    0.88500    1.000
    H2       H        0.04420    0.39010    0.92750    1.000
    C3       C        0.09890    0.34500    0.72350    1.000
    C4       C        0.04140    0.34580    0.63100    1.000
    H3       H        0.98760    0.34580    0.65640    1.000
    H4       H        0.04930    0.40690    0.58870    1.000
    H5       H        0.14910    0.31040    0.48170    1.000
    C5       C        0.18350    0.34620    0.68370    1.000
    H6       H        0.19260    0.40690    0.64120    1.000
    H7       H        0.21980    0.34750    0.74250    1.000
    N4       N        0.42480    0.40250    0.33100    1.000
    N5       N        0.44870    0.45850    0.41290    1.000
    N6       N        0.41550    0.56150    0.28700    1.000
    C6       C        0.40680    0.46560    0.25630    1.000
    H8       H        0.39000    0.44590    0.18980    1.000
    C7       C        0.44280    0.55420    0.38500    1.000
    H9       H        0.45580    0.60990    0.42750    1.000
    C8       C        0.40110    0.65500    0.22350    1.000
    C9       C        0.45860    0.65420    0.13100    1.000
    H10      H        0.51240    0.65420    0.15640    1.000
    H11      H        0.45070    0.59310    0.08870    1.000
    H12      H        0.35090    0.68960    0.98170    1.000
    C10      C        0.31650    0.65380    0.18370    1.000
    H13      H        0.30740    0.59310    0.14120    1.000
    H14      H        0.28020    0.65250    0.24250    1.000
    N7       N        0.92480    0.09750    0.16900    1.000
    N8       N        0.94870    0.04150    0.08710    1.000
    N9       N        0.91550    0.93850    0.21300    1.000
    C11      C        0.90680    0.03440    0.24370    1.000
    H15      H        0.89000    0.05410    0.31020    1.000
    C12      C        0.94280    0.94580    0.11500    1.000
    H16      H        0.95580    0.89010    0.07250    1.000
    C13      C        0.90110    0.84500    0.27650    1.000
    C14      C        0.95860    0.84580    0.36900    1.000
    H17      H        0.01240    0.84580    0.34360    1.000
    H18      H        0.95070    0.90690    0.41130    1.000
    H19      H        0.85090    0.81040    0.51830    1.000
    C15      C        0.81650    0.84620    0.31630    1.000
    H20      H        0.80740    0.90690    0.35880    1.000
    H21      H        0.78020    0.84750    0.25750    1.000
    N10      N        0.57520    0.90250    0.66900    1.000
    N11      N        0.55130    0.95850    0.58710    1.000
    N12      N        0.58450    0.06150    0.71300    1.000
    C16      C        0.59320    0.96560    0.74370    1.000
    H22      H        0.61000    0.94590    0.81020    1.000
    C17      C        0.55720    0.05420    0.61500    1.000
    H23      H        0.54420    0.10990    0.57250    1.000
    C18      C        0.59890    0.15500    0.77650    1.000
    C19      C        0.54140    0.15420    0.86900    1.000
    H24      H        0.48760    0.15420    0.84360    1.000
    H25      H        0.54930    0.09310    0.91130    1.000
    H26      H        0.64910    0.18960    0.01830    1.000
    C20      C        0.68350    0.15380    0.81630    1.000
    H27      H        0.69260    0.09310    0.85880    1.000
    H28      H        0.71980    0.15250    0.75750    1.000
    N13      N        0.92480    0.40250    0.16900    1.000
    N14      N        0.94870    0.45850    0.08710    1.000
    N15      N        0.91550    0.56150    0.21300    1.000
    C21      C        0.90680    0.46560    0.24370    1.000
    H29      H        0.89000    0.44590    0.31020    1.000
    C22      C        0.94280    0.55420    0.11500    1.000
    H30      H        0.95580    0.60990    0.07250    1.000
    C23      C        0.90110    0.65500    0.27650    1.000
    C24      C        0.95860    0.65420    0.36900    1.000
    H31      H        0.01240    0.65420    0.34360    1.000
    H32      H        0.95070    0.59310    0.41130    1.000
    H33      H        0.85090    0.68960    0.51830    1.000
    C25      C        0.81650    0.65380    0.31630    1.000
    H34      H        0.80740    0.59310    0.35880    1.000
    H35      H        0.78020    0.65250    0.25750    1.000
    N16      N        0.57520    0.59750    0.66900    1.000
    N17      N        0.55130    0.54150    0.58710    1.000
    N18      N        0.58450    0.43850    0.71300    1.000
    C26      C        0.59320    0.53440    0.74370    1.000
    H36      H        0.61000    0.55410    0.81020    1.000
    C27      C        0.55720    0.44580    0.61500    1.000
    H37      H        0.54420    0.39010    0.57250    1.000
    C28      C        0.59890    0.34500    0.77650    1.000
    C29      C        0.54140    0.34580    0.86900    1.000
    H38      H        0.48760    0.34580    0.84360    1.000
    H39      H        0.54930    0.40690    0.91130    1.000
    H40      H        0.64910    0.31040    0.01830    1.000
    C30      C        0.68350    0.34620    0.81630    1.000
    H41      H        0.69260    0.40690    0.85880    1.000
    H42      H        0.71980    0.34750    0.75750    1.000
    N19      N        0.07520    0.90250    0.83100    1.000
    N20      N        0.05130    0.95850    0.91290    1.000
    N21      N        0.08450    0.06150    0.78700    1.000
    C31      C        0.09320    0.96560    0.75630    1.000
    H43      H        0.11000    0.94590    0.68980    1.000
    C32      C        0.05720    0.05420    0.88500    1.000
    H44      H        0.04420    0.10990    0.92750    1.000
    C33      C        0.09890    0.15500    0.72350    1.000
    C34      C        0.04140    0.15420    0.63100    1.000
    H45      H        0.98760    0.15420    0.65640    1.000
    H46      H        0.04930    0.09310    0.58870    1.000
    H47      H        0.14910    0.18960    0.48170    1.000
    C35      C        0.18350    0.15380    0.68370    1.000
    H48      H        0.19260    0.09310    0.64120    1.000
    H49      H        0.21980    0.15250    0.74250    1.000
    N22      N        0.42480    0.09750    0.33100    1.000
    N23      N        0.44870    0.04150    0.41290    1.000
    N24      N        0.41550    0.93850    0.28700    1.000
    C36      C        0.40680    0.03440    0.25630    1.000
    H50      H        0.39000    0.05410    0.18980    1.000
    C37      C        0.44280    0.94580    0.38500    1.000
    H51      H        0.45580    0.89010    0.42750    1.000
    C38      C        0.40110    0.84500    0.22350    1.000
    C39      C        0.45860    0.84580    0.13100    1.000
    H52      H        0.51240    0.84580    0.15640    1.000
    H53      H        0.45070    0.90690    0.08870    1.000
    H54      H        0.35090    0.81040    0.98170    1.000
    C40      C        0.31650    0.84620    0.18370    1.000
    H55      H        0.30740    0.90690    0.14120    1.000
    H56      H        0.28020    0.84750    0.24250    1.000
    Cu1      Cu       0.06616    0.75000    0.83615    1.000
    Cu2      Cu       0.43384    0.25000    0.33615    1.000
    Cu3      Cu       0.93384    0.25000    0.16385    1.000
    Cu4      Cu       0.56616    0.75000    0.66385    1.000
    N25      N        0.95620    0.25000    0.31620    1.000
    N26      N        0.89410    0.25000    0.38350    1.000
    N27      N        0.00240    0.25000    0.47460    1.000
    N28      N        0.37740    0.25000    0.47190    1.000
    N29      N        0.40610    0.25000    0.57220    1.000
    N30      N        0.27750    0.25000    0.57740    1.000
    C41      C        0.02160    0.25000    0.37180    1.000
    H57      H        0.07250    0.25000    0.34470    1.000
    C42      C        0.92320    0.25000    0.47430    1.000
    H58      H        0.89290    0.25000    0.53520    1.000
    C43      C        0.30140    0.25000    0.47750    1.000
    H59      H        0.26790    0.25000    0.41970    1.000
    C44      C        0.34390    0.25000    0.63280    1.000
    H60      H        0.34580    0.25000    0.70580    1.000
    C45      C        0.05700    0.25000    0.56580    1.000
    C46      C        0.14020    0.25000    0.52460    1.000
    C47      C        0.19680    0.25000    0.61820    1.000
    C48      C        0.08580    0.25000    0.78980    1.000
    H61      H        0.12200    0.25000    0.84870    1.000
    H62      H        0.03250    0.25000    0.81730    1.000
    N31      N        0.54380    0.75000    0.81620    1.000
    N32      N        0.60590    0.75000    0.88350    1.000
    N33      N        0.49760    0.75000    0.97460    1.000
    N34      N        0.12260    0.75000    0.97190    1.000
    N35      N        0.09390    0.75000    0.07220    1.000
    N36      N        0.22250    0.75000    0.07740    1.000
    C49      C        0.47840    0.75000    0.87180    1.000
    H63      H        0.42750    0.75000    0.84470    1.000
    C50      C        0.57680    0.75000    0.97430    1.000
    H64      H        0.60710    0.75000    0.03520    1.000
    C51      C        0.19860    0.75000    0.97750    1.000
    H65      H        0.23210    0.75000    0.91970    1.000
    C52      C        0.15610    0.75000    0.13280    1.000
    H66      H        0.15420    0.75000    0.20580    1.000
    C53      C        0.44300    0.75000    0.06580    1.000
    C54      C        0.35980    0.75000    0.02460    1.000
    C55      C        0.30320    0.75000    0.11820    1.000
    C56      C        0.41420    0.75000    0.28980    1.000
    H67      H        0.37800    0.75000    0.34870    1.000
    H68      H        0.46750    0.75000    0.31730    1.000
    N37      N        0.04380    0.75000    0.68380    1.000
    N38      N        0.10590    0.75000    0.61650    1.000
    N39      N        0.99760    0.75000    0.52540    1.000
    N40      N        0.62260    0.75000    0.52810    1.000
    N41      N        0.59390    0.75000    0.42780    1.000
    N42      N        0.72250    0.75000    0.42260    1.000
    C57      C        0.97840    0.75000    0.62820    1.000
    H69      H        0.92750    0.75000    0.65530    1.000
    C58      C        0.07680    0.75000    0.52570    1.000
    H70      H        0.10710    0.75000    0.46480    1.000
    C59      C        0.69860    0.75000    0.52250    1.000
    H71      H        0.73210    0.75000    0.58030    1.000
    C60      C        0.65610    0.75000    0.36720    1.000
    H72      H        0.65420    0.75000    0.29420    1.000
    C61      C        0.94300    0.75000    0.43420    1.000
    C62      C        0.85980    0.75000    0.47540    1.000
    C63      C        0.80320    0.75000    0.38180    1.000
    C64      C        0.91420    0.75000    0.21020    1.000
    H73      H        0.87800    0.75000    0.15130    1.000
    H74      H        0.96750    0.75000    0.18270    1.000
    N43      N        0.45620    0.25000    0.18380    1.000
    N44      N        0.39410    0.25000    0.11650    1.000
    N45      N        0.50240    0.25000    0.02540    1.000
    N46      N        0.87740    0.25000    0.02810    1.000
    N47      N        0.90610    0.25000    0.92780    1.000
    N48      N        0.77750    0.25000    0.92260    1.000
    C65      C        0.52160    0.25000    0.12820    1.000
    H75      H        0.57250    0.25000    0.15530    1.000
    C66      C        0.42320    0.25000    0.02570    1.000
    H76      H        0.39290    0.25000    0.96480    1.000
    C67      C        0.80140    0.25000    0.02250    1.000
    H77      H        0.76790    0.25000    0.08030    1.000
    C68      C        0.84390    0.25000    0.86720    1.000
    H78      H        0.84580    0.25000    0.79420    1.000
    C69      C        0.55700    0.25000    0.93420    1.000
    C70      C        0.64020    0.25000    0.97540    1.000
    C71      C        0.69680    0.25000    0.88180    1.000
    C72      C        0.58580    0.25000    0.71020    1.000
    H79      H        0.62200    0.25000    0.65130    1.000
    H80      H        0.53250    0.25000    0.68270    1.000
