# CIF file generated by openbabel 3.1.0, see https://openbabel.org
data_I
_chemical_name_common 'SAQQAD_clean'
_cell_length_a 15.2994
_cell_length_b 15.2994
_cell_length_c 18.4904
_cell_angle_alpha 75.7184
_cell_angle_beta 75.7184
_cell_angle_gamma 68.1324
_space_group_name_H-M_alt 'P 1'
_space_group_name_Hall 'P 1'
loop_
    _symmetry_equiv_pos_as_xyz
    x,y,z
loop_
    _atom_site_label
    _atom_site_type_symbol
    _atom_site_fract_x
    _atom_site_fract_y
    _atom_site_fract_z
    _atom_site_occupancy
    Tb1      Tb       0.96142    0.04354    0.10404    1.000
    Tb2      Tb       0.95646    0.03858    0.39596    1.000
    Tb3      Tb       0.03858    0.95646    0.89596    1.000
    Tb4      Tb       0.04354    0.96142    0.60404    1.000
    H1       H        0.01570    0.71310    0.21530    1.000
    H2       H        0.01920    0.55780    0.24500    1.000
    H3       H        0.03490    0.55590    0.02730    1.000
    H4       H        0.03070    0.71050    0.99760    1.000
    H5       H        0.34950    0.92050    0.90710    1.000
    H6       H        0.49480    0.92980    0.90910    1.000
    H7       H        0.38140    0.04740    0.09600    1.000
    H8       H        0.23890    0.02970    0.09680    1.000
    H9       H        0.10630    0.23930    0.09170    1.000
    H10      H        0.11430    0.39290    0.06280    1.000
    H11      H        0.95370    0.44530    0.26410    1.000
    H12      H        0.94290    0.29430    0.29250    1.000
    H13      H        0.28690    0.98430    0.28470    1.000
    H14      H        0.44220    0.98080    0.25500    1.000
    H15      H        0.44410    0.96510    0.47270    1.000
    H16      H        0.28950    0.96930    0.50240    1.000
    H17      H        0.07950    0.65050    0.59290    1.000
    H18      H        0.07020    0.50520    0.59090    1.000
    H19      H        0.95260    0.61860    0.40400    1.000
    H20      H        0.97030    0.76110    0.40320    1.000
    H21      H        0.76070    0.89370    0.40830    1.000
    H22      H        0.60710    0.88570    0.43720    1.000
    H23      H        0.55470    0.04630    0.23590    1.000
    H24      H        0.70570    0.05710    0.20750    1.000
    H25      H        0.98430    0.28690    0.78470    1.000
    H26      H        0.98080    0.44220    0.75500    1.000
    H27      H        0.96510    0.44410    0.97270    1.000
    H28      H        0.96930    0.28950    0.00240    1.000
    H29      H        0.65050    0.07950    0.09290    1.000
    H30      H        0.50520    0.07020    0.09090    1.000
    H31      H        0.61860    0.95260    0.90400    1.000
    H32      H        0.76110    0.97030    0.90320    1.000
    H33      H        0.89370    0.76070    0.90830    1.000
    H34      H        0.88570    0.60710    0.93720    1.000
    H35      H        0.04630    0.55470    0.73590    1.000
    H36      H        0.05710    0.70570    0.70750    1.000
    H37      H        0.71310    0.01570    0.71530    1.000
    H38      H        0.55780    0.01920    0.74500    1.000
    H39      H        0.55590    0.03490    0.52730    1.000
    H40      H        0.71050    0.03070    0.49760    1.000
    H41      H        0.92050    0.34950    0.40710    1.000
    H42      H        0.92980    0.49480    0.40910    1.000
    H43      H        0.04740    0.38140    0.59600    1.000
    H44      H        0.02970    0.23890    0.59680    1.000
    H45      H        0.23930    0.10630    0.59170    1.000
    H46      H        0.39290    0.11430    0.56280    1.000
    H47      H        0.44530    0.95370    0.76410    1.000
    H48      H        0.29430    0.94290    0.79250    1.000
    C1       C        0.00830    0.83330    0.08450    1.000
    C2       C        0.01720    0.73040    0.10310    1.000
    C3       C        0.01790    0.68190    0.17730    1.000
    C4       C        0.02160    0.58820    0.19470    1.000
    C5       C        0.02890    0.53750    0.14010    1.000
    C6       C        0.03080    0.58720    0.06570    1.000
    C7       C        0.02680    0.68040    0.04790    1.000
    C8       C        0.18213    0.96853    0.00030    1.000
    C9       C        0.27630    0.97650    0.00100    1.000
    C10      C        0.35560    0.94620    0.94560    1.000
    C11      C        0.44280    0.95300    0.94590    1.000
    C12      C        0.45380    0.99420    0.00030    1.000
    C13      C        0.37550    0.02190    0.05740    1.000
    C14      C        0.28950    0.01190    0.05740    1.000
    C15      C        0.01466    0.15286    0.21280    1.000
    C16      C        0.02390    0.24970    0.19540    1.000
    C17      C        0.07490    0.28070    0.12640    1.000
    C18      C        0.07950    0.37350    0.10880    1.000
    C19      C        0.03290    0.43630    0.15880    1.000
    C20      C        0.98330    0.40450    0.22890    1.000
    C21      C        0.97780    0.31340    0.24640    1.000
    C22      C        0.16670    0.99170    0.41550    1.000
    C23      C        0.26960    0.98280    0.39690    1.000
    C24      C        0.31810    0.98210    0.32270    1.000
    C25      C        0.41180    0.97840    0.30530    1.000
    C26      C        0.46250    0.97110    0.35990    1.000
    C27      C        0.41280    0.96920    0.43430    1.000
    C28      C        0.31960    0.97320    0.45210    1.000
    C29      C        0.03147    0.81787    0.49970    1.000
    C30      C        0.02350    0.72370    0.49900    1.000
    C31      C        0.05380    0.64440    0.55440    1.000
    C32      C        0.04700    0.55720    0.55410    1.000
    C33      C        0.00580    0.54620    0.49970    1.000
    C34      C        0.97810    0.62450    0.44260    1.000
    C35      C        0.98810    0.71050    0.44260    1.000
    C36      C        0.84714    0.98534    0.28720    1.000
    C37      C        0.75030    0.97610    0.30460    1.000
    C38      C        0.71930    0.92510    0.37360    1.000
    C39      C        0.62650    0.92050    0.39120    1.000
    C40      C        0.56370    0.96710    0.34120    1.000
    C41      C        0.59550    0.01670    0.27110    1.000
    C42      C        0.68660    0.02220    0.25360    1.000
    C43      C        0.99170    0.16670    0.91550    1.000
    C44      C        0.98280    0.26960    0.89690    1.000
    C45      C        0.98210    0.31810    0.82270    1.000
    C46      C        0.97840    0.41180    0.80530    1.000
    C47      C        0.97110    0.46250    0.85990    1.000
    C48      C        0.96920    0.41280    0.93430    1.000
    C49      C        0.97320    0.31960    0.95210    1.000
    C50      C        0.81787    0.03147    0.99970    1.000
    C51      C        0.72370    0.02350    0.99900    1.000
    C52      C        0.64440    0.05380    0.05440    1.000
    C53      C        0.55720    0.04700    0.05410    1.000
    C54      C        0.54620    0.00580    0.99970    1.000
    C55      C        0.62450    0.97810    0.94260    1.000
    C56      C        0.71050    0.98810    0.94260    1.000
    C57      C        0.98534    0.84714    0.78720    1.000
    C58      C        0.97610    0.75030    0.80460    1.000
    C59      C        0.92510    0.71930    0.87360    1.000
    C60      C        0.92050    0.62650    0.89120    1.000
    C61      C        0.96710    0.56370    0.84120    1.000
    C62      C        0.01670    0.59550    0.77110    1.000
    C63      C        0.02220    0.68660    0.75360    1.000
    C64      C        0.83330    0.00830    0.58450    1.000
    C65      C        0.73040    0.01720    0.60310    1.000
    C66      C        0.68190    0.01790    0.67730    1.000
    C67      C        0.58820    0.02160    0.69470    1.000
    C68      C        0.53750    0.02890    0.64010    1.000
    C69      C        0.58720    0.03080    0.56570    1.000
    C70      C        0.68040    0.02680    0.54790    1.000
    C71      C        0.96853    0.18213    0.50030    1.000
    C72      C        0.97650    0.27630    0.50100    1.000
    C73      C        0.94620    0.35560    0.44560    1.000
    C74      C        0.95300    0.44280    0.44590    1.000
    C75      C        0.99420    0.45380    0.50030    1.000
    C76      C        0.02190    0.37550    0.55740    1.000
    C77      C        0.01190    0.28950    0.55740    1.000
    C78      C        0.15286    0.01466    0.71280    1.000
    C79      C        0.24970    0.02390    0.69540    1.000
    C80      C        0.28070    0.07490    0.62640    1.000
    C81      C        0.37350    0.07950    0.60880    1.000
    C82      C        0.43630    0.03290    0.65880    1.000
    C83      C        0.40450    0.98330    0.72890    1.000
    C84      C        0.31340    0.97780    0.74640    1.000
    O1       O        0.99061    0.87701    0.13760    1.000
    O2       O        0.01114    0.87534    0.01700    1.000
    O3       O        0.12262    0.97522    0.05980    1.000
    O4       O        0.16943    0.95643    0.93930    1.000
    O5       O        0.04066    0.10446    0.15960    1.000
    O6       O        0.97721    0.12721    0.27910    1.000
    O7       O        0.12299    0.00939    0.36240    1.000
    O8       O        0.12466    0.98886    0.48300    1.000
    O9       O        0.02478    0.87738    0.44020    1.000
    O10      O        0.04357    0.83057    0.56070    1.000
    O11      O        0.89554    0.95934    0.34040    1.000
    O12      O        0.87279    0.02279    0.22090    1.000
    O13      O        0.00939    0.12299    0.86240    1.000
    O14      O        0.98886    0.12466    0.98300    1.000
    O15      O        0.87738    0.02478    0.94020    1.000
    O16      O        0.83057    0.04357    0.06070    1.000
    O17      O        0.95934    0.89554    0.84040    1.000
    O18      O        0.02279    0.87279    0.72090    1.000
    O19      O        0.87701    0.99061    0.63760    1.000
    O20      O        0.87534    0.01114    0.51700    1.000
    O21      O        0.97522    0.12262    0.55980    1.000
    O22      O        0.95643    0.16943    0.43930    1.000
    O23      O        0.10446    0.04066    0.65960    1.000
    O24      O        0.12721    0.97721    0.77910    1.000
