# CIF file generated by openbabel 3.1.0, see https://openbabel.org
data_I
_chemical_name_common 'PAMHES_clean'
_cell_length_a 8.2336
_cell_length_b 9.697
_cell_length_c 19.402
_cell_angle_alpha 90
_cell_angle_beta 90
_cell_angle_gamma 101.727
_space_group_name_H-M_alt 'P 1'
_space_group_name_Hall 'P 1'
loop_
    _symmetry_equiv_pos_as_xyz
    x,y,z
loop_
    _atom_site_label
    _atom_site_type_symbol
    _atom_site_fract_x
    _atom_site_fract_y
    _atom_site_fract_z
    _atom_site_occupancy
    Zn1      Zn       0.28491    0.15703    0.29588    1.000
    Zn2      Zn       0.63815    0.05313    0.23975    1.000
    Zn3      Zn       0.71509    0.84297    0.79588    1.000
    Zn4      Zn       0.36185    0.94687    0.73975    1.000
    H1       H        0.14820    0.19770    0.32150    1.000
    H2       H        0.98680    0.36630    0.37930    1.000
    H3       H        0.01690    0.22570    0.40940    1.000
    H4       H        0.21190    0.46950    0.41020    1.000
    H5       H        0.26030    0.32860    0.43380    1.000
    H6       H        0.11470    0.38170    0.47050    1.000
    H7       H        0.85180    0.80230    0.82150    1.000
    H8       H        0.01320    0.63370    0.87930    1.000
    H9       H        0.98310    0.77430    0.90940    1.000
    H10      H        0.78810    0.53050    0.91020    1.000
    H11      H        0.73970    0.67140    0.93380    1.000
    H12      H        0.88530    0.61830    0.97050    1.000
    C1       C        0.46890    0.19010    0.04560    1.000
    C2       C        0.51540    0.15360    0.98160    1.000
    C3       C        0.47130    0.01590    0.95740    1.000
    C4       C        0.37860    0.91840    0.00120    1.000
    C5       C        0.33070    0.95600    0.06540    1.000
    C6       C        0.37620    0.09210    0.08950    1.000
    C7       C        0.32480    0.13300    0.16030    1.000
    C8       C        0.52060    0.97440    0.88650    1.000
    C9       C        0.85940    0.71200    0.22600    1.000
    C10      C        0.78290    0.57240    0.22580    1.000
    C11      C        0.70730    0.50780    0.28430    1.000
    C12      C        0.71350    0.58880    0.34290    1.000
    C13      C        0.79440    0.72960    0.34280    1.000
    C14      C        0.86770    0.79340    0.28460    1.000
    C15      C        0.95880    0.94730    0.28460    1.000
    C16      C        0.61270    0.35520    0.28280    1.000
    C17      C        0.07090    0.31000    0.38540    1.000
    C18      C        0.17000    0.37600    0.42730    1.000
    C19      C        0.53110    0.80990    0.54560    1.000
    C20      C        0.48460    0.84640    0.48160    1.000
    C21      C        0.52870    0.98410    0.45740    1.000
    C22      C        0.62140    0.08160    0.50120    1.000
    C23      C        0.66930    0.04400    0.56540    1.000
    C24      C        0.62380    0.90790    0.58950    1.000
    C25      C        0.67520    0.86700    0.66030    1.000
    C26      C        0.47940    0.02560    0.38650    1.000
    C27      C        0.14060    0.28800    0.72600    1.000
    C28      C        0.21710    0.42760    0.72580    1.000
    C29      C        0.29270    0.49220    0.78430    1.000
    C30      C        0.28650    0.41120    0.84290    1.000
    C31      C        0.20560    0.27040    0.84280    1.000
    C32      C        0.13230    0.20660    0.78460    1.000
    C33      C        0.04120    0.05270    0.78460    1.000
    C34      C        0.38730    0.64480    0.78280    1.000
    C35      C        0.92910    0.69000    0.88540    1.000
    C36      C        0.83000    0.62400    0.92730    1.000
    O1       O        0.39350    0.08650    0.21158    1.000
    O2       O        0.21970    0.20380    0.16610    1.000
    O3       O        0.62700    0.90050    0.88553    1.000
    O4       O        0.45000    0.01690    0.83701    1.000
    O5       O        0.10910    0.96720    0.29500    1.000
    O6       O        0.87660    0.04050    0.27420    1.000
    O7       O        0.69590    0.26380    0.27020    1.000
    O8       O        0.46120    0.34110    0.29330    1.000
    O9       O        0.10280    0.26530    0.31880    1.000
    O10      O        0.60650    0.91350    0.71158    1.000
    O11      O        0.78030    0.79620    0.66610    1.000
    O12      O        0.37300    0.09950    0.38553    1.000
    O13      O        0.55000    0.98310    0.33701    1.000
    O14      O        0.89090    0.03280    0.79500    1.000
    O15      O        0.12340    0.95950    0.77420    1.000
    O16      O        0.30410    0.73620    0.77020    1.000
    O17      O        0.53880    0.65890    0.79330    1.000
    O18      O        0.89720    0.73470    0.81880    1.000
    F1       F        0.51870    0.32380    0.06600    1.000
    F2       F        0.60570    0.25180    0.94062    1.000
    F3       F        0.33010    0.78410    0.98046    1.000
    F4       F        0.23640    0.85790    0.10510    1.000
    F5       F        0.92630    0.77030    0.16662    1.000
    F6       F        0.77950    0.49910    0.16716    1.000
    F7       F        0.64620    0.53320    0.40196    1.000
    F8       F        0.80030    0.80370    0.40179    1.000
    F9       F        0.48130    0.67620    0.56600    1.000
    F10      F        0.39430    0.74820    0.44062    1.000
    F11      F        0.66990    0.21590    0.48046    1.000
    F12      F        0.76360    0.14210    0.60510    1.000
    F13      F        0.07370    0.22970    0.66662    1.000
    F14      F        0.22050    0.50090    0.66716    1.000
    F15      F        0.35380    0.46680    0.90196    1.000
    F16      F        0.19970    0.19630    0.90179    1.000
