# CIF file generated by openbabel 3.1.0, see https://openbabel.org
data_I
_chemical_name_common 'image0'
_cell_length_a 14.8357
_cell_length_b 14.8357
_cell_length_c 6.7854
_cell_angle_alpha 90
_cell_angle_beta 90
_cell_angle_gamma 90
_space_group_name_H-M_alt 'P 1'
_space_group_name_Hall 'P 1'
loop_
    _symmetry_equiv_pos_as_xyz
    x,y,z
loop_
    _atom_site_label
    _atom_site_type_symbol
    _atom_site_fract_x
    _atom_site_fract_y
    _atom_site_fract_z
    _atom_site_occupancy
    C1       C        0.31830    0.79320    0.24900    1.000
    C2       C        0.25280    0.85830    0.25410    1.000
    F1       F        0.40440    0.82010    0.25240    1.000
    F2       F        0.27830    0.94600    0.25340    1.000
    O1       O        0.42630    0.63330    0.11400    1.000
    O2       O        0.04340    0.91970    0.09910    1.000
    O3       O        0.61490    0.69240    0.98700    1.000
    H1       H        0.67200    0.68720    0.98860    1.000
    H2       H        0.59790    0.72150    0.08850    1.000
    O4       O        0.66130    0.64600    0.94500    1.000
    H3       H        0.68290    0.66550    0.05270    1.000
    H4       H        0.70340    0.62330    0.87570    1.000
    C3       C        0.68170    0.20680    0.74900    1.000
    C4       C        0.74720    0.14170    0.75410    1.000
    F3       F        0.59560    0.17990    0.75240    1.000
    F4       F        0.72170    0.05400    0.75340    1.000
    O5       O        0.57370    0.36670    0.61400    1.000
    O6       O        0.95660    0.08030    0.59910    1.000
    O7       O        0.38510    0.30760    0.48700    1.000
    H5       H        0.32800    0.31280    0.48860    1.000
    H6       H        0.40210    0.27850    0.58850    1.000
    O8       O        0.33870    0.35400    0.44500    1.000
    H7       H        0.31710    0.33450    0.55270    1.000
    H8       H        0.29660    0.37670    0.37570    1.000
    C5       C        0.70680    0.81830    0.49900    1.000
    C6       C        0.64170    0.75280    0.50410    1.000
    F5       F        0.67990    0.90440    0.50240    1.000
    F6       F        0.55400    0.77830    0.50340    1.000
    O9       O        0.86670    0.92630    0.36400    1.000
    O10      O        0.58030    0.54340    0.34910    1.000
    O11      O        0.80760    0.11490    0.23700    1.000
    H9       H        0.81280    0.17200    0.23860    1.000
    H10      H        0.77850    0.09790    0.33850    1.000
    O12      O        0.85400    0.16130    0.19500    1.000
    H11      H        0.83450    0.18290    0.30270    1.000
    H12      H        0.87670    0.20340    0.12570    1.000
    C7       C        0.29320    0.18170    0.99900    1.000
    C8       C        0.35830    0.24720    0.00410    1.000
    F7       F        0.32010    0.09560    0.00240    1.000
    F8       F        0.44600    0.22170    0.00340    1.000
    O13      O        0.13330    0.07370    0.86400    1.000
    O14      O        0.41970    0.45660    0.84910    1.000
    O15      O        0.19240    0.88510    0.73700    1.000
    H13      H        0.18720    0.82800    0.73860    1.000
    H14      H        0.22150    0.90210    0.83850    1.000
    O16      O        0.14600    0.83870    0.69500    1.000
    H15      H        0.16550    0.81710    0.80270    1.000
    H16      H        0.12330    0.79660    0.62570    1.000
    C9       C        0.18170    0.29320    0.00100    1.000
    C10      C        0.24720    0.35830    0.99590    1.000
    F9       F        0.09560    0.32010    0.99760    1.000
    F10      F        0.22170    0.44600    0.99660    1.000
    O17      O        0.07370    0.13330    0.13600    1.000
    O18      O        0.45660    0.41970    0.15090    1.000
    O19      O        0.88510    0.19240    0.26300    1.000
    H17      H        0.82800    0.18720    0.26140    1.000
    H18      H        0.90210    0.22150    0.16150    1.000
    O20      O        0.83870    0.14600    0.30500    1.000
    H19      H        0.81710    0.16550    0.19730    1.000
    H20      H        0.79660    0.12330    0.37430    1.000
    C11      C        0.81830    0.70680    0.50100    1.000
    C12      C        0.75280    0.64170    0.49590    1.000
    F11      F        0.90440    0.67990    0.49760    1.000
    F12      F        0.77830    0.55400    0.49660    1.000
    O21      O        0.92630    0.86670    0.63600    1.000
    O22      O        0.54340    0.58030    0.65090    1.000
    O23      O        0.11490    0.80760    0.76300    1.000
    H21      H        0.17200    0.81280    0.76140    1.000
    H22      H        0.09790    0.77850    0.66150    1.000
    O24      O        0.16130    0.85400    0.80500    1.000
    H23      H        0.18290    0.83450    0.69730    1.000
    H24      H        0.20340    0.87670    0.87430    1.000
    C13      C        0.79320    0.31830    0.75100    1.000
    C14      C        0.85830    0.25280    0.74590    1.000
    F13      F        0.82010    0.40440    0.74760    1.000
    F14      F        0.94600    0.27830    0.74660    1.000
    O25      O        0.63330    0.42630    0.88600    1.000
    O26      O        0.91970    0.04340    0.90090    1.000
    O27      O        0.69240    0.61490    0.01300    1.000
    H25      H        0.68720    0.67200    0.01140    1.000
    H26      H        0.72150    0.59790    0.91150    1.000
    O28      O        0.64600    0.66130    0.05500    1.000
    H27      H        0.66550    0.68290    0.94730    1.000
    H28      H        0.62330    0.70340    0.12430    1.000
    C15      C        0.20680    0.68170    0.25100    1.000
    C16      C        0.14170    0.74720    0.24590    1.000
    F15      F        0.17990    0.59560    0.24760    1.000
    F16      F        0.05400    0.72170    0.24660    1.000
    O29      O        0.36670    0.57370    0.38600    1.000
    O30      O        0.08030    0.95660    0.40090    1.000
    O31      O        0.30760    0.38510    0.51300    1.000
    H29      H        0.31280    0.32800    0.51140    1.000
    H30      H        0.27850    0.40210    0.41150    1.000
    O32      O        0.35400    0.33870    0.55500    1.000
    H31      H        0.33450    0.31710    0.44730    1.000
    H32      H        0.37670    0.29660    0.62430    1.000
    C17      C        0.36830    0.63170    0.25000    1.000
    C18      C        0.29660    0.70340    0.25000    1.000
    C19      C        0.08980    0.91020    0.25000    1.000
    C20      C        0.16120    0.83880    0.25000    1.000
    C21      C        0.63170    0.36830    0.75000    1.000
    C22      C        0.70340    0.29660    0.75000    1.000
    C23      C        0.91020    0.08980    0.75000    1.000
    C24      C        0.83880    0.16120    0.75000    1.000
    C25      C        0.86830    0.86830    0.50000    1.000
    C26      C        0.79660    0.79660    0.50000    1.000
    C27      C        0.58980    0.58980    0.50000    1.000
    C28      C        0.66120    0.66120    0.50000    1.000
    C29      C        0.13170    0.13170    0.00000    1.000
    C30      C        0.20340    0.20340    0.00000    1.000
    C31      C        0.41020    0.41020    0.00000    1.000
    C32      C        0.33880    0.33880    0.00000    1.000
    Ca1      Ca       0.54852    0.54852    0.00000    1.000
    Ca2      Ca       0.45148    0.45148    0.50000    1.000
    Ca3      Ca       0.95148    0.04852    0.25000    1.000
    Ca4      Ca       0.04852    0.95148    0.75000    1.000
