# CIF file generated by openbabel 3.1.0, see https://openbabel.org
data_I
_chemical_name_common 'image0'
_cell_length_a 12.446
_cell_length_b 7.287
_cell_length_c 17.819
_cell_angle_alpha 90
_cell_angle_beta 97.23
_cell_angle_gamma 90
_space_group_name_H-M_alt 'P 1'
_space_group_name_Hall 'P 1'
loop_
    _symmetry_equiv_pos_as_xyz
    x,y,z
loop_
    _atom_site_label
    _atom_site_type_symbol
    _atom_site_fract_x
    _atom_site_fract_y
    _atom_site_fract_z
    _atom_site_occupancy
    P1       P        0.19048    0.86740    0.87992    1.000
    O1       O        0.10320    0.04820    0.72420    1.000
    O2       O        0.71830    0.86770    0.77660    1.000
    O3       O        0.24370    0.69040    0.85630    1.000
    O4       O        0.90370    0.67380    0.77080    1.000
    O5       O        0.24360    0.03700    0.84900    1.000
    O6       O        0.06820    0.86510    0.85250    1.000
    O7       O        0.20440    0.88030    0.96680    1.000
    H1       H        0.25580    0.27130    0.50140    1.000
    V1       V        0.23658    0.07414    0.73904    1.000
    P2       P        0.69048    0.36740    0.87992    1.000
    O8       O        0.60320    0.54820    0.72420    1.000
    O9       O        0.21830    0.36770    0.77660    1.000
    O10      O        0.74370    0.19040    0.85630    1.000
    O11      O        0.40370    0.17380    0.77080    1.000
    O12      O        0.74360    0.53700    0.84900    1.000
    O13      O        0.56820    0.36510    0.85250    1.000
    O14      O        0.70440    0.38030    0.96680    1.000
    H2       H        0.75580    0.77130    0.50140    1.000
    V2       V        0.73658    0.57414    0.73904    1.000
    P3       P        0.80952    0.86740    0.62008    1.000
    O15      O        0.89680    0.04820    0.77580    1.000
    O16      O        0.28170    0.86770    0.72340    1.000
    O17      O        0.75630    0.69040    0.64370    1.000
    O18      O        0.09630    0.67380    0.72920    1.000
    O19      O        0.75640    0.03700    0.65100    1.000
    O20      O        0.93180    0.86510    0.64750    1.000
    O21      O        0.79560    0.88030    0.53320    1.000
    H3       H        0.74420    0.27130    0.99860    1.000
    V3       V        0.76342    0.07414    0.76096    1.000
    P4       P        0.30952    0.36740    0.62008    1.000
    O22      O        0.39680    0.54820    0.77580    1.000
    O23      O        0.78170    0.36770    0.72340    1.000
    O24      O        0.25630    0.19040    0.64370    1.000
    O25      O        0.59630    0.17380    0.72920    1.000
    O26      O        0.25640    0.53700    0.65100    1.000
    O27      O        0.43180    0.36510    0.64750    1.000
    O28      O        0.29560    0.38030    0.53320    1.000
    H4       H        0.24420    0.77130    0.99860    1.000
    V4       V        0.26342    0.57414    0.76096    1.000
    P5       P        0.80952    0.13260    0.12008    1.000
    O29      O        0.89680    0.95180    0.27580    1.000
    O30      O        0.28170    0.13230    0.22340    1.000
    O31      O        0.75630    0.30960    0.14370    1.000
    O32      O        0.09630    0.32620    0.22920    1.000
    O33      O        0.75640    0.96300    0.15100    1.000
    O34      O        0.93180    0.13490    0.14750    1.000
    O35      O        0.79560    0.11970    0.03320    1.000
    H5       H        0.74420    0.72870    0.49860    1.000
    V5       V        0.76342    0.92586    0.26096    1.000
    P6       P        0.30952    0.63260    0.12008    1.000
    O36      O        0.39680    0.45180    0.27580    1.000
    O37      O        0.78170    0.63230    0.22340    1.000
    O38      O        0.25630    0.80960    0.14370    1.000
    O39      O        0.59630    0.82620    0.22920    1.000
    O40      O        0.25640    0.46300    0.15100    1.000
    O41      O        0.43180    0.63490    0.14750    1.000
    O42      O        0.29560    0.61970    0.03320    1.000
    H6       H        0.24420    0.22870    0.49860    1.000
    V6       V        0.26342    0.42586    0.26096    1.000
    P7       P        0.19048    0.13260    0.37992    1.000
    O43      O        0.10320    0.95180    0.22420    1.000
    O44      O        0.71830    0.13230    0.27660    1.000
    O45      O        0.24370    0.30960    0.35630    1.000
    O46      O        0.90370    0.32620    0.27080    1.000
    O47      O        0.24360    0.96300    0.34900    1.000
    O48      O        0.06820    0.13490    0.35250    1.000
    O49      O        0.20440    0.11970    0.46680    1.000
    H7       H        0.25580    0.72870    0.00140    1.000
    V7       V        0.23658    0.92586    0.23904    1.000
    P8       P        0.69048    0.63260    0.37992    1.000
    O50      O        0.60320    0.45180    0.22420    1.000
    O51      O        0.21830    0.63230    0.27660    1.000
    O52      O        0.74370    0.80960    0.35630    1.000
    O53      O        0.40370    0.82620    0.27080    1.000
    O54      O        0.74360    0.46300    0.34900    1.000
    O55      O        0.56820    0.63490    0.35250    1.000
    O56      O        0.70440    0.61970    0.46680    1.000
    H8       H        0.75580    0.22870    0.00140    1.000
    V8       V        0.73658    0.42586    0.23904    1.000
    V9       V        0.00000    0.81170    0.75000    1.000
    V10      V        0.50000    0.31170    0.75000    1.000
    V11      V        0.00000    0.18830    0.25000    1.000
    V12      V        0.50000    0.68830    0.25000    1.000
