# CIF file generated by openbabel 3.1.0, see https://openbabel.org
data_I
_chemical_name_common 'HEHCOO_clean'
_cell_length_a 21.858
_cell_length_b 21.858
_cell_length_c 23.333
_cell_angle_alpha 90
_cell_angle_beta 90
_cell_angle_gamma 120
_space_group_name_H-M_alt 'P 1'
_space_group_name_Hall 'P 1'
loop_
    _symmetry_equiv_pos_as_xyz
    x,y,z
loop_
    _atom_site_label
    _atom_site_type_symbol
    _atom_site_fract_x
    _atom_site_fract_y
    _atom_site_fract_z
    _atom_site_occupancy
    Cd1      Cd       0.59352    0.12951    0.87132    1.000
    Cd2      Cd       0.40648    0.53599    0.79535    1.000
    Co1      Co       0.52615    0.88986    0.85288    1.000
    Co2      Co       0.47385    0.36371    0.81379    1.000
    H1       H        0.45380    0.09730    0.81380    1.000
    H2       H        0.37970    0.04810    0.73630    1.000
    H3       H        0.35900    0.93720    0.70360    1.000
    H4       H        0.44790    0.91220    0.71770    1.000
    H5       H        0.72060    0.97980    0.72150    1.000
    H6       H        0.76440    0.90430    0.76000    1.000
    H7       H        0.70120    0.82570    0.83770    1.000
    H8       H        0.44900    0.68890    0.92370    1.000
    H9       H        0.38320    0.63550    0.00240    1.000
    H10      H        0.38310    0.70720    0.08110    1.000
    H11      H        0.52550    0.87580    0.00170    1.000
    H12      H        0.75090    0.16920    0.86640    1.000
    H13      H        0.83220    0.13140    0.89470    1.000
    H14      H        0.78870    0.02300    0.94190    1.000
    H15      H        0.66540    0.94680    0.94610    1.000
    H16      H        0.38770    0.97360    0.94910    1.000
    H17      H        0.27900    0.88190    0.91300    1.000
    H18      H        0.28090    0.80530    0.84440    1.000
    H19      H        0.53810    0.64990    0.71020    1.000
    H20      H        0.57690    0.76000    0.67090    1.000
    H21      H        0.53690    0.83420    0.70910    1.000
    H22      H        0.42450    0.68280    0.82540    1.000
    H23      H        0.54620    0.64350    0.85287    1.000
    H24      H        0.62030    0.66840    0.93037    1.000
    H25      H        0.64100    0.57820    0.96307    1.000
    H26      H        0.55210    0.46430    0.94897    1.000
    H27      H        0.27940    0.25920    0.94517    1.000
    H28      H        0.23560    0.13990    0.90667    1.000
    H29      H        0.29880    0.12450    0.82897    1.000
    H30      H        0.55100    0.23990    0.74297    1.000
    H31      H        0.61680    0.25230    0.66427    1.000
    H32      H        0.61690    0.32410    0.58557    1.000
    H33      H        0.47450    0.35030    0.66497    1.000
    H34      H        0.24910    0.41830    0.80027    1.000
    H35      H        0.16780    0.29920    0.77197    1.000
    H36      H        0.21130    0.23430    0.72477    1.000
    H37      H        0.33460    0.28140    0.72057    1.000
    H38      H        0.61230    0.58590    0.71757    1.000
    H39      H        0.72100    0.60290    0.75367    1.000
    H40      H        0.71910    0.52440    0.82227    1.000
    H41      H        0.46190    0.11180    0.95647    1.000
    H42      H        0.42310    0.18310    0.99577    1.000
    H43      H        0.46310    0.29730    0.95757    1.000
    H44      H        0.57550    0.25830    0.84127    1.000
    C1       C        0.45480    0.06100    0.79220    1.000
    C2       C        0.40720    0.02860    0.74990    1.000
    C3       C        0.39870    0.96680    0.72670    1.000
    C4       C        0.44850    0.95030    0.73780    1.000
    C5       C        0.50260    0.98800    0.77890    1.000
    C6       C        0.60260    0.98010    0.76220    1.000
    C7       C        0.64100    0.94260    0.78030    1.000
    C8       C        0.69860    0.94870    0.75290    1.000
    C9       C        0.72380    0.90320    0.77580    1.000
    C10      C        0.68650    0.85670    0.82260    1.000
    C11      C        0.63130    0.85790    0.84440    1.000
    C12      C        0.58650    0.81290    0.89550    1.000
    C13      C        0.49020    0.78760    0.95310    1.000
    C14      C        0.44980    0.71660    0.95540    1.000
    C15      C        0.41170    0.68550    0.00100    1.000
    C16      C        0.41350    0.72820    0.04920    1.000
    C17      C        0.49460    0.82600    0.00180    1.000
    C18      C        0.73370    0.12330    0.88200    1.000
    C19      C        0.78290    0.10160    0.90050    1.000
    C20      C        0.75740    0.03710    0.92660    1.000
    C21      C        0.68430    0.99260    0.93000    1.000
    C22      C        0.63930    0.01580    0.90980    1.000
    C23      C        0.52030    0.98880    0.92440    1.000
    C24      C        0.44780    0.93540    0.90940    1.000
    C25      C        0.38570    0.93780    0.92480    1.000
    C26      C        0.32250    0.88510    0.90230    1.000
    C27      C        0.32320    0.83700    0.86390    1.000
    C28      C        0.37900    0.83420    0.85420    1.000
    C29      C        0.39160    0.78780    0.81130    1.000
    C30      C        0.52240    0.67970    0.72620    1.000
    C31      C        0.54570    0.74500    0.70280    1.000
    C32      C        0.52350    0.78970    0.72610    1.000
    C33      C        0.48090    0.76690    0.77530    1.000
    C34      C        0.45710    0.69970    0.79440    1.000
    C35      C        0.54520    0.60620    0.87447    1.000
    C36      C        0.59280    0.62140    0.91677    1.000
    C37      C        0.60130    0.56810    0.93997    1.000
    C38      C        0.55150    0.50180    0.92887    1.000
    C39      C        0.49740    0.48540    0.88777    1.000
    C40      C        0.39740    0.37750    0.90447    1.000
    C41      C        0.35900    0.30160    0.88637    1.000
    C42      C        0.30140    0.25010    0.91377    1.000
    C43      C        0.27620    0.17940    0.89087    1.000
    C44      C        0.31350    0.17020    0.84407    1.000
    C45      C        0.36870    0.22660    0.82227    1.000
    C46      C        0.41350    0.22640    0.77117    1.000
    C47      C        0.50980    0.29740    0.71357    1.000
    C48      C        0.55020    0.26680    0.71127    1.000
    C49      C        0.58830    0.27380    0.66567    1.000
    C50      C        0.58650    0.31470    0.61747    1.000
    C51      C        0.50540    0.33140    0.66487    1.000
    C52      C        0.26630    0.38960    0.78467    1.000
    C53      C        0.21710    0.31870    0.76617    1.000
    C54      C        0.24260    0.27970    0.74007    1.000
    C55      C        0.31570    0.30830    0.73667    1.000
    C56      C        0.36070    0.37650    0.75687    1.000
    C57      C        0.47970    0.46850    0.74227    1.000
    C58      C        0.55220    0.48760    0.75727    1.000
    C59      C        0.61430    0.55210    0.74187    1.000
    C60      C        0.67750    0.56260    0.76437    1.000
    C61      C        0.67680    0.51380    0.80277    1.000
    C62      C        0.62100    0.45520    0.81247    1.000
    C63      C        0.60840    0.39620    0.85537    1.000
    C64      C        0.47760    0.15730    0.94047    1.000
    C65      C        0.45430    0.19930    0.96387    1.000
    C66      C        0.47650    0.26620    0.94057    1.000
    C67      C        0.51910    0.28600    0.89137    1.000
    C68      C        0.54290    0.24260    0.87227    1.000
    N1       N        0.50320    0.04260    0.80420    1.000
    N2       N        0.54530    0.96200    0.79410    1.000
    N3       N        0.60810    0.89800    0.82260    1.000
    N4       N        0.53550    0.82300    0.90470    1.000
    N5       N        0.45750    0.79570    0.04780    1.000
    N6       N        0.66320    0.07880    0.88690    1.000
    N7       N        0.56630    0.96790    0.90800    1.000
    N8       N        0.44220    0.88290    0.87720    1.000
    N9       N        0.45990    0.81090    0.80400    1.000
    N10      N        0.47750    0.65600    0.77160    1.000
    N11      N        0.49680    0.53940    0.86247    1.000
    N12      N        0.45470    0.41670    0.87257    1.000
    N13      N        0.39190    0.28990    0.84407    1.000
    N14      N        0.46450    0.28750    0.76197    1.000
    N15      N        0.54250    0.33820    0.61887    1.000
    N16      N        0.33680    0.41560    0.77977    1.000
    N17      N        0.43370    0.40160    0.75867    1.000
    N18      N        0.55780    0.44070    0.78947    1.000
    N19      N        0.54010    0.35100    0.86267    1.000
    N20      N        0.52250    0.17850    0.89507    1.000
    Cl1      Cl       0.66453    0.21583    0.79571    1.000
    Cl2      Cl       0.33547    0.55130    0.87096    1.000
    O1       O        0.62800    0.02510    0.72260    1.000
    O2       O        0.60350    0.77210    0.92020    1.000
    O3       O        0.53380    0.04610    0.94780    1.000
    O4       O        0.34090    0.73680    0.78820    1.000
    O5       O        0.37200    0.39710    0.94407    1.000
    O6       O        0.39650    0.16860    0.74647    1.000
    O7       O        0.46620    0.51230    0.71887    1.000
    O8       O        0.65910    0.39590    0.87847    1.000
    Cd3      Cd       0.53599    0.40648    0.53799    1.000
    Cd4      Cd       0.12951    0.59352    0.46201    1.000
    Co3      Co       0.36371    0.47385    0.51955    1.000
    Co4      Co       0.88986    0.52615    0.48045    1.000
    H45      H        0.64350    0.54620    0.48047    1.000
    H46      H        0.66840    0.62030    0.40297    1.000
    H47      H        0.57820    0.64100    0.37027    1.000
    H48      H        0.46430    0.55210    0.38437    1.000
    H49      H        0.25920    0.27940    0.38817    1.000
    H50      H        0.13990    0.23560    0.42667    1.000
    H51      H        0.12450    0.29880    0.50437    1.000
    H52      H        0.23990    0.55100    0.59037    1.000
    H53      H        0.25230    0.61680    0.66907    1.000
    H54      H        0.32410    0.61690    0.74777    1.000
    H55      H        0.35030    0.47450    0.66837    1.000
    H56      H        0.41830    0.24910    0.53307    1.000
    H57      H        0.29920    0.16780    0.56137    1.000
    H58      H        0.23430    0.21130    0.60857    1.000
    H59      H        0.28140    0.33460    0.61277    1.000
    H60      H        0.58590    0.61230    0.61577    1.000
    H61      H        0.60290    0.72100    0.57967    1.000
    H62      H        0.52440    0.71910    0.51107    1.000
    H63      H        0.11180    0.46190    0.37687    1.000
    H64      H        0.18310    0.42310    0.33757    1.000
    H65      H        0.29730    0.46310    0.37577    1.000
    H66      H        0.25830    0.57550    0.49207    1.000
    H67      H        0.09730    0.45380    0.51953    1.000
    H68      H        0.04810    0.37970    0.59703    1.000
    H69      H        0.93720    0.35900    0.62973    1.000
    H70      H        0.91220    0.44790    0.61563    1.000
    H71      H        0.97980    0.72060    0.61183    1.000
    H72      H        0.90430    0.76440    0.57333    1.000
    H73      H        0.82570    0.70120    0.49563    1.000
    H74      H        0.68890    0.44900    0.40963    1.000
    H75      H        0.63550    0.38320    0.33093    1.000
    H76      H        0.70720    0.38310    0.25223    1.000
    H77      H        0.87580    0.52550    0.33163    1.000
    H78      H        0.16920    0.75090    0.46693    1.000
    H79      H        0.13140    0.83220    0.43863    1.000
    H80      H        0.02300    0.78870    0.39143    1.000
    H81      H        0.94680    0.66540    0.38723    1.000
    H82      H        0.97360    0.38770    0.38423    1.000
    H83      H        0.88190    0.27900    0.42033    1.000
    H84      H        0.80530    0.28090    0.48893    1.000
    H85      H        0.64990    0.53810    0.62313    1.000
    H86      H        0.76000    0.57690    0.66243    1.000
    H87      H        0.83420    0.53690    0.62423    1.000
    H88      H        0.68280    0.42450    0.50793    1.000
    C69      C        0.60620    0.54520    0.45887    1.000
    C70      C        0.62140    0.59280    0.41657    1.000
    C71      C        0.56810    0.60130    0.39337    1.000
    C72      C        0.50180    0.55150    0.40447    1.000
    C73      C        0.48540    0.49740    0.44557    1.000
    C74      C        0.37750    0.39740    0.42887    1.000
    C75      C        0.30160    0.35900    0.44697    1.000
    C76      C        0.25010    0.30140    0.41957    1.000
    C77      C        0.17940    0.27620    0.44247    1.000
    C78      C        0.17020    0.31350    0.48927    1.000
    C79      C        0.22660    0.36870    0.51107    1.000
    C80      C        0.22640    0.41350    0.56217    1.000
    C81      C        0.29740    0.50980    0.61977    1.000
    C82      C        0.26680    0.55020    0.62207    1.000
    C83      C        0.27380    0.58830    0.66767    1.000
    C84      C        0.31470    0.58650    0.71587    1.000
    C85      C        0.33140    0.50540    0.66847    1.000
    C86      C        0.38960    0.26630    0.54867    1.000
    C87      C        0.31870    0.21710    0.56717    1.000
    C88      C        0.27970    0.24260    0.59327    1.000
    C89      C        0.30830    0.31570    0.59667    1.000
    C90      C        0.37650    0.36070    0.57647    1.000
    C91      C        0.46850    0.47970    0.59107    1.000
    C92      C        0.48760    0.55220    0.57607    1.000
    C93      C        0.55210    0.61430    0.59147    1.000
    C94      C        0.56260    0.67750    0.56897    1.000
    C95      C        0.51380    0.67680    0.53057    1.000
    C96      C        0.45520    0.62100    0.52087    1.000
    C97      C        0.39620    0.60840    0.47797    1.000
    C98      C        0.15730    0.47760    0.39287    1.000
    C99      C        0.19930    0.45430    0.36947    1.000
    C100     C        0.26620    0.47650    0.39277    1.000
    C101     C        0.28600    0.51910    0.44197    1.000
    C102     C        0.24260    0.54290    0.46107    1.000
    C103     C        0.06100    0.45480    0.54113    1.000
    C104     C        0.02860    0.40720    0.58343    1.000
    C105     C        0.96680    0.39870    0.60663    1.000
    C106     C        0.95030    0.44850    0.59553    1.000
    C107     C        0.98800    0.50260    0.55443    1.000
    C108     C        0.98010    0.60260    0.57113    1.000
    C109     C        0.94260    0.64100    0.55303    1.000
    C110     C        0.94870    0.69860    0.58043    1.000
    C111     C        0.90320    0.72380    0.55753    1.000
    C112     C        0.85670    0.68650    0.51073    1.000
    C113     C        0.85790    0.63130    0.48893    1.000
    C114     C        0.81290    0.58650    0.43783    1.000
    C115     C        0.78760    0.49020    0.38023    1.000
    C116     C        0.71660    0.44980    0.37793    1.000
    C117     C        0.68550    0.41170    0.33233    1.000
    C118     C        0.72820    0.41350    0.28413    1.000
    C119     C        0.82600    0.49460    0.33153    1.000
    C120     C        0.12330    0.73370    0.45133    1.000
    C121     C        0.10160    0.78290    0.43283    1.000
    C122     C        0.03710    0.75740    0.40673    1.000
    C123     C        0.99260    0.68430    0.40333    1.000
    C124     C        0.01580    0.63930    0.42353    1.000
    C125     C        0.98880    0.52030    0.40893    1.000
    C126     C        0.93540    0.44780    0.42393    1.000
    C127     C        0.93780    0.38570    0.40853    1.000
    C128     C        0.88510    0.32250    0.43103    1.000
    C129     C        0.83700    0.32320    0.46943    1.000
    C130     C        0.83420    0.37900    0.47913    1.000
    C131     C        0.78780    0.39160    0.52203    1.000
    C132     C        0.67970    0.52240    0.60713    1.000
    C133     C        0.74500    0.54570    0.63053    1.000
    C134     C        0.78970    0.52350    0.60723    1.000
    C135     C        0.76690    0.48090    0.55803    1.000
    C136     C        0.69970    0.45710    0.53893    1.000
    N21      N        0.53940    0.49680    0.47087    1.000
    N22      N        0.41670    0.45470    0.46077    1.000
    N23      N        0.28990    0.39190    0.48927    1.000
    N24      N        0.28750    0.46450    0.57137    1.000
    N25      N        0.33820    0.54250    0.71447    1.000
    N26      N        0.41560    0.33680    0.55357    1.000
    N27      N        0.40160    0.43370    0.57467    1.000
    N28      N        0.44070    0.55780    0.54387    1.000
    N29      N        0.35100    0.54010    0.47067    1.000
    N30      N        0.17850    0.52250    0.43827    1.000
    N31      N        0.04260    0.50320    0.52913    1.000
    N32      N        0.96200    0.54530    0.53923    1.000
    N33      N        0.89800    0.60810    0.51073    1.000
    N34      N        0.82300    0.53550    0.42863    1.000
    N35      N        0.79570    0.45750    0.28553    1.000
    N36      N        0.07880    0.66320    0.44643    1.000
    N37      N        0.96790    0.56630    0.42533    1.000
    N38      N        0.88290    0.44220    0.45613    1.000
    N39      N        0.81090    0.45990    0.52933    1.000
    N40      N        0.65600    0.47750    0.56173    1.000
    Cl3      Cl       0.55130    0.33547    0.46238    1.000
    Cl4      Cl       0.21583    0.66453    0.53762    1.000
    O9       O        0.39710    0.37200    0.38927    1.000
    O10      O        0.16860    0.39650    0.58687    1.000
    O11      O        0.51230    0.46620    0.61447    1.000
    O12      O        0.39590    0.65910    0.45487    1.000
    O13      O        0.02510    0.62800    0.61073    1.000
    O14      O        0.77210    0.60350    0.41313    1.000
    O15      O        0.04610    0.53380    0.38553    1.000
    O16      O        0.73680    0.34090    0.54513    1.000
    Cd5      Cd       0.87049    0.46401    0.20465    1.000
    Cd6      Cd       0.46401    0.87049    0.12868    1.000
    Co5      Co       0.11014    0.63629    0.18621    1.000
    Co6      Co       0.63629    0.11014    0.14712    1.000
    H89      H        0.90270    0.35650    0.14713    1.000
    H90      H        0.95190    0.33160    0.06963    1.000
    H91      H        0.06280    0.42180    0.03693    1.000
    H92      H        0.08780    0.53570    0.05103    1.000
    H93      H        0.02020    0.74080    0.05483    1.000
    H94      H        0.09570    0.86010    0.09333    1.000
    H95      H        0.17430    0.87550    0.17103    1.000
    H96      H        0.31110    0.76010    0.25703    1.000
    H97      H        0.36450    0.74770    0.33573    1.000
    H98      H        0.29280    0.67590    0.41443    1.000
    H99      H        0.12420    0.64970    0.33503    1.000
    H100     H        0.83080    0.58170    0.19973    1.000
    H101     H        0.86860    0.70080    0.22803    1.000
    H102     H        0.97700    0.76570    0.27523    1.000
    H103     H        0.05320    0.71860    0.27943    1.000
    H104     H        0.02640    0.41410    0.28243    1.000
    H105     H        0.11810    0.39710    0.24633    1.000
    H106     H        0.19470    0.47560    0.17773    1.000
    H107     H        0.35010    0.88820    0.04353    1.000
    H108     H        0.24000    0.81690    0.00423    1.000
    H109     H        0.16580    0.70270    0.04243    1.000
    H110     H        0.31720    0.74170    0.15873    1.000
    H111     H        0.35650    0.90270    0.18620    1.000
    H112     H        0.33160    0.95190    0.26370    1.000
    H113     H        0.42180    0.06280    0.29640    1.000
    H114     H        0.53570    0.08780    0.28230    1.000
    H115     H        0.74080    0.02020    0.27850    1.000
    H116     H        0.86010    0.09570    0.24000    1.000
    H117     H        0.87550    0.17430    0.16230    1.000
    H118     H        0.76010    0.31110    0.07630    1.000
    H119     H        0.74770    0.36450    0.99760    1.000
    H120     H        0.67590    0.29280    0.91890    1.000
    H121     H        0.64970    0.12420    0.99830    1.000
    H122     H        0.58170    0.83080    0.13360    1.000
    H123     H        0.70080    0.86860    0.10530    1.000
    H124     H        0.76570    0.97700    0.05810    1.000
    H125     H        0.71860    0.05320    0.05390    1.000
    H126     H        0.41410    0.02640    0.05090    1.000
    H127     H        0.39710    0.11810    0.08700    1.000
    H128     H        0.47560    0.19470    0.15560    1.000
    H129     H        0.88820    0.35010    0.28980    1.000
    H130     H        0.81690    0.24000    0.32910    1.000
    H131     H        0.70270    0.16580    0.29090    1.000
    H132     H        0.74170    0.31720    0.17460    1.000
    C137     C        0.93900    0.39380    0.12553    1.000
    C138     C        0.97140    0.37860    0.08323    1.000
    C139     C        0.03320    0.43190    0.06003    1.000
    C140     C        0.04970    0.49820    0.07113    1.000
    C141     C        0.01200    0.51460    0.11223    1.000
    C142     C        0.01990    0.62250    0.09553    1.000
    C143     C        0.05740    0.69840    0.11363    1.000
    C144     C        0.05130    0.74990    0.08623    1.000
    C145     C        0.09680    0.82060    0.10913    1.000
    C146     C        0.14330    0.82980    0.15593    1.000
    C147     C        0.14210    0.77340    0.17773    1.000
    C148     C        0.18710    0.77360    0.22883    1.000
    C149     C        0.21240    0.70260    0.28643    1.000
    C150     C        0.28340    0.73320    0.28873    1.000
    C151     C        0.31450    0.72620    0.33433    1.000
    C152     C        0.27180    0.68530    0.38253    1.000
    C153     C        0.17400    0.66860    0.33513    1.000
    C154     C        0.87670    0.61040    0.21533    1.000
    C155     C        0.89840    0.68130    0.23383    1.000
    C156     C        0.96290    0.72030    0.25993    1.000
    C157     C        0.00740    0.69170    0.26333    1.000
    C158     C        0.98420    0.62350    0.24313    1.000
    C159     C        0.01120    0.53150    0.25773    1.000
    C160     C        0.06460    0.51240    0.24273    1.000
    C161     C        0.06220    0.44790    0.25813    1.000
    C162     C        0.11490    0.43740    0.23563    1.000
    C163     C        0.16300    0.48620    0.19723    1.000
    C164     C        0.16580    0.54480    0.18753    1.000
    C165     C        0.21220    0.60380    0.14463    1.000
    C166     C        0.32030    0.84270    0.05953    1.000
    C167     C        0.25500    0.80070    0.03613    1.000
    C168     C        0.21030    0.73380    0.05943    1.000
    C169     C        0.23310    0.71400    0.10863    1.000
    C170     C        0.30030    0.75740    0.12773    1.000
    C171     C        0.39380    0.93900    0.20780    1.000
    C172     C        0.37860    0.97140    0.25010    1.000
    C173     C        0.43190    0.03320    0.27330    1.000
    C174     C        0.49820    0.04970    0.26220    1.000
    C175     C        0.51460    0.01200    0.22110    1.000
    C176     C        0.62250    0.01990    0.23780    1.000
    C177     C        0.69840    0.05740    0.21970    1.000
    C178     C        0.74990    0.05130    0.24710    1.000
    C179     C        0.82060    0.09680    0.22420    1.000
    C180     C        0.82980    0.14330    0.17740    1.000
    C181     C        0.77340    0.14210    0.15560    1.000
    C182     C        0.77360    0.18710    0.10450    1.000
    C183     C        0.70260    0.21240    0.04690    1.000
    C184     C        0.73320    0.28340    0.04460    1.000
    C185     C        0.72620    0.31450    0.99900    1.000
    C186     C        0.68530    0.27180    0.95080    1.000
    C187     C        0.66860    0.17400    0.99820    1.000
    C188     C        0.61040    0.87670    0.11800    1.000
    C189     C        0.68130    0.89840    0.09950    1.000
    C190     C        0.72030    0.96290    0.07340    1.000
    C191     C        0.69170    0.00740    0.07000    1.000
    C192     C        0.62350    0.98420    0.09020    1.000
    C193     C        0.53150    0.01120    0.07560    1.000
    C194     C        0.51240    0.06460    0.09060    1.000
    C195     C        0.44790    0.06220    0.07520    1.000
    C196     C        0.43740    0.11490    0.09770    1.000
    C197     C        0.48620    0.16300    0.13610    1.000
    C198     C        0.54480    0.16580    0.14580    1.000
    C199     C        0.60380    0.21220    0.18870    1.000
    C200     C        0.84270    0.32030    0.27380    1.000
    C201     C        0.80070    0.25500    0.29720    1.000
    C202     C        0.73380    0.21030    0.27390    1.000
    C203     C        0.71400    0.23310    0.22470    1.000
    C204     C        0.75740    0.30030    0.20560    1.000
    N41      N        0.95740    0.46060    0.13753    1.000
    N42      N        0.03800    0.58330    0.12743    1.000
    N43      N        0.10200    0.71010    0.15593    1.000
    N44      N        0.17700    0.71250    0.23803    1.000
    N45      N        0.20430    0.66180    0.38113    1.000
    N46      N        0.92120    0.58440    0.22023    1.000
    N47      N        0.03210    0.59840    0.24133    1.000
    N48      N        0.11710    0.55930    0.21053    1.000
    N49      N        0.18910    0.64900    0.13733    1.000
    N50      N        0.34400    0.82150    0.10493    1.000
    N51      N        0.46060    0.95740    0.19580    1.000
    N52      N        0.58330    0.03800    0.20590    1.000
    N53      N        0.71010    0.10200    0.17740    1.000
    N54      N        0.71250    0.17700    0.09530    1.000
    N55      N        0.66180    0.20430    0.95220    1.000
    N56      N        0.58440    0.92120    0.11310    1.000
    N57      N        0.59840    0.03210    0.09200    1.000
    N58      N        0.55930    0.11710    0.12280    1.000
    N59      N        0.64900    0.18910    0.19600    1.000
    N60      N        0.82150    0.34400    0.22840    1.000
    Cl5      Cl       0.78417    0.44870    0.12904    1.000
    Cl6      Cl       0.44870    0.78417    0.20429    1.000
    O17      O        0.97490    0.60290    0.05593    1.000
    O18      O        0.22790    0.83140    0.25353    1.000
    O19      O        0.95390    0.48770    0.28113    1.000
    O20      O        0.26320    0.60410    0.12153    1.000
    O21      O        0.60290    0.97490    0.27740    1.000
    O22      O        0.83140    0.22790    0.07980    1.000
    O23      O        0.48770    0.95390    0.05220    1.000
    O24      O        0.60410    0.26320    0.21180    1.000
