# CIF file generated by openbabel 3.1.0, see https://openbabel.org
data_I
_chemical_name_common 'image0'
_cell_length_a 34.0339
_cell_length_b 18.7606
_cell_length_c 22.3666
_cell_angle_alpha 90
_cell_angle_beta 116.429
_cell_angle_gamma 90
_space_group_name_H-M_alt 'P 1'
_space_group_name_Hall 'P 1'
loop_
    _symmetry_equiv_pos_as_xyz
    x,y,z
loop_
    _atom_site_label
    _atom_site_type_symbol
    _atom_site_fract_x
    _atom_site_fract_y
    _atom_site_fract_z
    _atom_site_occupancy
    Cd1      Cd       0.28770    0.12421    0.70115    1.000
    Cd2      Cd       0.82478    0.06246    0.95180    1.000
    Cd3      Cd       0.67546    0.35703    0.18842    1.000
    O1       O        0.35700    0.14330    0.72070    1.000
    O2       O        0.35030    0.13210    0.81220    1.000
    O3       O        0.77951    0.09790    0.99370    1.000
    O4       O        0.72479    0.06380    0.89680    1.000
    O5       O        0.68497    0.32320    0.09490    1.000
    O6       O        0.75387    0.28330    0.12900    1.000
    O7       O        0.88140    0.93910    0.42400    1.000
    O8       O        0.89480    0.84170    0.37460    1.000
    O9       O        0.21515    0.05110    0.66490    1.000
    O10      O        0.27985    0.01340    0.73960    1.000
    O11      O        0.30228    0.75430    0.77490    1.000
    O12      O        0.24639    0.68030    0.74140    1.000
    N1       N        0.58890    0.15560    0.90950    1.000
    N2       N        0.11289    0.84150    0.62150    1.000
    C1       C        0.37450    0.13480    0.77550    1.000
    C2       C        0.44910    0.13770    0.78950    1.000
    H1       H        0.43730    0.13010    0.74370    1.000
    C3       C        0.42390    0.14060    0.81560    1.000
    C4       C        0.49460    0.14530    0.82570    1.000
    H2       H        0.51160    0.14120    0.80280    1.000
    C5       C        0.51440    0.15770    0.88940    1.000
    C6       C        0.48670    0.15950    0.92570    1.000
    H3       H        0.49970    0.16380    0.97200    1.000
    C7       C        0.56220    0.16800    0.92740    1.000
    C8       C        0.44160    0.15470    0.89030    1.000
    H4       H        0.42320    0.15980    0.91070    1.000
    C9       C        0.73950    0.09700    0.95210    1.000
    C10      C        0.70870    0.13710    0.97030    1.000
    C11      C        0.72510    0.18480    0.02320    1.000
    H5       H        0.75520    0.18990    0.04850    1.000
    C12      C        0.69620    0.22530    0.03860    1.000
    C13      C        0.65070    0.21580    0.00180    1.000
    H6       H        0.63150    0.24180    0.01260    1.000
    C14      C        0.63410    0.16650    0.94810    1.000
    C15      C        0.66310    0.12940    0.93250    1.000
    H7       H        0.65230    0.09850    0.89610    1.000
    C16      C        0.71350    0.28060    0.09180    1.000
    C17      C        0.90550    0.88940    0.41890    1.000
    C18      C        0.95250    0.88750    0.47330    1.000
    C19      C        0.96710    0.93500    0.52410    1.000
    H8       H        0.94760    0.96890    0.52550    1.000
    C20      C        0.01090    0.93560    0.57560    1.000
    H9       H        0.02000    0.96880    0.61000    1.000
    C21      C        0.03940    0.88490    0.57250    1.000
    C22      C        0.02410    0.83720    0.52100    1.000
    H10      H        0.04330    0.80360    0.51820    1.000
    C23      C        0.98060    0.83740    0.47240    1.000
    H11      H        0.97090    0.80270    0.43930    1.000
    C24      C        0.08610    0.88680    0.62300    1.000
    C25      C        0.24030    0.00200    0.70320    1.000
    C26      C        0.22130    0.93090    0.70160    1.000
    C27      C        0.24780    0.87300    0.72780    1.000
    H12      H        0.27790    0.87970    0.75070    1.000
    C28      C        0.23110    0.80480    0.72140    1.000
    C29      C        0.18620    0.79450    0.68760    1.000
    H13      H        0.17460    0.74870    0.68220    1.000
    C30      C        0.15840    0.85310    0.66180    1.000
    C31      C        0.17660    0.92120    0.66890    1.000
    H14      H        0.15820    0.96040    0.65130    1.000
    C32      C        0.26210    0.74330    0.74710    1.000
    H15      H        0.57000    0.17800    0.97300    1.000
    H16      H        0.06000    0.88300    0.62800    1.000
    C33      C        0.45680    0.08240    0.80230    1.000
    C34      C        0.49580    0.10480    0.66260    1.000
    C35      C        0.48890    0.21520    0.87300    1.000
    C36      C        0.44360    0.19910    0.83520    1.000
    H17      H        0.44690    0.04140    0.77650    1.000
    H18      H        0.47450    0.08610    0.67360    1.000
    H19      H        0.49960    0.26120    0.88510    1.000
    H20      H        0.42530    0.23880    0.82290    1.000
    O13      O        0.36500    0.07030    0.73710    1.000
    O14      O        0.35400    0.17560    0.75950    1.000
    Cd4      Cd       0.78770    0.62421    0.70115    1.000
    Cd5      Cd       0.32478    0.56246    0.95180    1.000
    Cd6      Cd       0.17546    0.85703    0.18842    1.000
    O15      O        0.85700    0.64330    0.72070    1.000
    O16      O        0.85030    0.63210    0.81220    1.000
    O17      O        0.27951    0.59790    0.99370    1.000
    O18      O        0.22479    0.56380    0.89680    1.000
    O19      O        0.18497    0.82320    0.09490    1.000
    O20      O        0.25387    0.78330    0.12900    1.000
    O21      O        0.38140    0.43910    0.42400    1.000
    O22      O        0.39480    0.34170    0.37460    1.000
    O23      O        0.71515    0.55110    0.66490    1.000
    O24      O        0.77985    0.51340    0.73960    1.000
    O25      O        0.80228    0.25430    0.77490    1.000
    O26      O        0.74639    0.18030    0.74140    1.000
    N3       N        0.08890    0.65560    0.90950    1.000
    N4       N        0.61289    0.34150    0.62150    1.000
    C37      C        0.87450    0.63480    0.77550    1.000
    C38      C        0.94910    0.63770    0.78950    1.000
    H21      H        0.93730    0.63010    0.74370    1.000
    C39      C        0.92390    0.64060    0.81560    1.000
    C40      C        0.99460    0.64530    0.82570    1.000
    H22      H        0.01160    0.64120    0.80280    1.000
    C41      C        0.01440    0.65770    0.88940    1.000
    C42      C        0.98670    0.65950    0.92570    1.000
    H23      H        0.99970    0.66380    0.97200    1.000
    C43      C        0.06220    0.66800    0.92740    1.000
    C44      C        0.94160    0.65470    0.89030    1.000
    H24      H        0.92320    0.65980    0.91070    1.000
    C45      C        0.23950    0.59700    0.95210    1.000
    C46      C        0.20870    0.63710    0.97030    1.000
    C47      C        0.22510    0.68480    0.02320    1.000
    H25      H        0.25520    0.68990    0.04850    1.000
    C48      C        0.19620    0.72530    0.03860    1.000
    C49      C        0.15070    0.71580    0.00180    1.000
    H26      H        0.13150    0.74180    0.01260    1.000
    C50      C        0.13410    0.66650    0.94810    1.000
    C51      C        0.16310    0.62940    0.93250    1.000
    H27      H        0.15230    0.59850    0.89610    1.000
    C52      C        0.21350    0.78060    0.09180    1.000
    C53      C        0.40550    0.38940    0.41890    1.000
    C54      C        0.45250    0.38750    0.47330    1.000
    C55      C        0.46710    0.43500    0.52410    1.000
    H28      H        0.44760    0.46890    0.52550    1.000
    C56      C        0.51090    0.43560    0.57560    1.000
    H29      H        0.52000    0.46880    0.61000    1.000
    C57      C        0.53940    0.38490    0.57250    1.000
    C58      C        0.52410    0.33720    0.52100    1.000
    H30      H        0.54330    0.30360    0.51820    1.000
    C59      C        0.48060    0.33740    0.47240    1.000
    H31      H        0.47090    0.30270    0.43930    1.000
    C60      C        0.58610    0.38680    0.62300    1.000
    C61      C        0.74030    0.50200    0.70320    1.000
    C62      C        0.72130    0.43090    0.70160    1.000
    C63      C        0.74780    0.37300    0.72780    1.000
    H32      H        0.77790    0.37970    0.75070    1.000
    C64      C        0.73110    0.30480    0.72140    1.000
    C65      C        0.68620    0.29450    0.68760    1.000
    H33      H        0.67460    0.24870    0.68220    1.000
    C66      C        0.65840    0.35310    0.66180    1.000
    C67      C        0.67660    0.42120    0.66890    1.000
    H34      H        0.65820    0.46040    0.65130    1.000
    C68      C        0.76210    0.24330    0.74710    1.000
    H35      H        0.07000    0.67800    0.97300    1.000
    H36      H        0.56000    0.38300    0.62800    1.000
    C69      C        0.95680    0.58240    0.80230    1.000
    C70      C        0.99580    0.60480    0.66260    1.000
    C71      C        0.98890    0.71520    0.87300    1.000
    C72      C        0.94360    0.69910    0.83520    1.000
    H37      H        0.94690    0.54140    0.77650    1.000
    H38      H        0.97450    0.58610    0.67360    1.000
    H39      H        0.99960    0.76120    0.88510    1.000
    H40      H        0.92530    0.73880    0.82290    1.000
    O27      O        0.86500    0.57030    0.73710    1.000
    O28      O        0.85400    0.67560    0.75950    1.000
    Cd7      Cd       0.71230    0.12421    0.79885    1.000
    Cd8      Cd       0.17522    0.06246    0.54820    1.000
    Cd9      Cd       0.32454    0.35703    0.31158    1.000
    O29      O        0.64300    0.14330    0.77930    1.000
    O30      O        0.64970    0.13210    0.68780    1.000
    O31      O        0.22049    0.09790    0.50630    1.000
    O32      O        0.27521    0.06380    0.60320    1.000
    O33      O        0.31503    0.32320    0.40510    1.000
    O34      O        0.24613    0.28330    0.37100    1.000
    O35      O        0.11860    0.93910    0.07600    1.000
    O36      O        0.10520    0.84170    0.12540    1.000
    O37      O        0.78485    0.05110    0.83510    1.000
    O38      O        0.72015    0.01340    0.76040    1.000
    O39      O        0.69772    0.75430    0.72510    1.000
    O40      O        0.75361    0.68030    0.75860    1.000
    N5       N        0.41110    0.15560    0.59050    1.000
    N6       N        0.88711    0.84150    0.87850    1.000
    C73      C        0.62550    0.13480    0.72450    1.000
    C74      C        0.55090    0.13770    0.71050    1.000
    H41      H        0.56270    0.13010    0.75630    1.000
    C75      C        0.57610    0.14060    0.68440    1.000
    C76      C        0.50540    0.14530    0.67430    1.000
    H42      H        0.48840    0.14120    0.69720    1.000
    C77      C        0.48560    0.15770    0.61060    1.000
    C78      C        0.51330    0.15950    0.57430    1.000
    H43      H        0.50030    0.16380    0.52800    1.000
    C79      C        0.43780    0.16800    0.57260    1.000
    C80      C        0.55840    0.15470    0.60970    1.000
    H44      H        0.57680    0.15980    0.58930    1.000
    C81      C        0.26050    0.09700    0.54790    1.000
    C82      C        0.29130    0.13710    0.52970    1.000
    C83      C        0.27490    0.18480    0.47680    1.000
    H45      H        0.24480    0.18990    0.45150    1.000
    C84      C        0.30380    0.22530    0.46140    1.000
    C85      C        0.34930    0.21580    0.49820    1.000
    H46      H        0.36850    0.24180    0.48740    1.000
    C86      C        0.36590    0.16650    0.55190    1.000
    C87      C        0.33690    0.12940    0.56750    1.000
    H47      H        0.34770    0.09850    0.60390    1.000
    C88      C        0.28650    0.28060    0.40820    1.000
    C89      C        0.09450    0.88940    0.08110    1.000
    C90      C        0.04750    0.88750    0.02670    1.000
    C91      C        0.03290    0.93500    0.97590    1.000
    H48      H        0.05240    0.96890    0.97450    1.000
    C92      C        0.98910    0.93560    0.92440    1.000
    H49      H        0.98000    0.96880    0.89000    1.000
    C93      C        0.96060    0.88490    0.92750    1.000
    C94      C        0.97590    0.83720    0.97900    1.000
    H50      H        0.95670    0.80360    0.98180    1.000
    C95      C        0.01940    0.83740    0.02760    1.000
    H51      H        0.02910    0.80270    0.06070    1.000
    C96      C        0.91390    0.88680    0.87700    1.000
    C97      C        0.75970    0.00200    0.79680    1.000
    C98      C        0.77870    0.93090    0.79840    1.000
    C99      C        0.75220    0.87300    0.77220    1.000
    H52      H        0.72210    0.87970    0.74930    1.000
    C100     C        0.76890    0.80480    0.77860    1.000
    C101     C        0.81380    0.79450    0.81240    1.000
    H53      H        0.82540    0.74870    0.81780    1.000
    C102     C        0.84160    0.85310    0.83820    1.000
    C103     C        0.82340    0.92120    0.83110    1.000
    H54      H        0.84180    0.96040    0.84870    1.000
    C104     C        0.73790    0.74330    0.75290    1.000
    H55      H        0.43000    0.17800    0.52700    1.000
    H56      H        0.94000    0.88300    0.87200    1.000
    C105     C        0.54320    0.08240    0.69770    1.000
    C106     C        0.50420    0.10480    0.83740    1.000
    C107     C        0.51110    0.21520    0.62700    1.000
    C108     C        0.55640    0.19910    0.66480    1.000
    H57      H        0.55310    0.04140    0.72350    1.000
    H58      H        0.52550    0.08610    0.82640    1.000
    H59      H        0.50040    0.26120    0.61490    1.000
    H60      H        0.57470    0.23880    0.67710    1.000
    O41      O        0.63500    0.07030    0.76290    1.000
    O42      O        0.64600    0.17560    0.74050    1.000
    Cd10     Cd       0.21230    0.62421    0.79885    1.000
    Cd11     Cd       0.67522    0.56246    0.54820    1.000
    Cd12     Cd       0.82454    0.85703    0.31158    1.000
    O43      O        0.14300    0.64330    0.77930    1.000
    O44      O        0.14970    0.63210    0.68780    1.000
    O45      O        0.72049    0.59790    0.50630    1.000
    O46      O        0.77521    0.56380    0.60320    1.000
    O47      O        0.81503    0.82320    0.40510    1.000
    O48      O        0.74613    0.78330    0.37100    1.000
    O49      O        0.61860    0.43910    0.07600    1.000
    O50      O        0.60520    0.34170    0.12540    1.000
    O51      O        0.28485    0.55110    0.83510    1.000
    O52      O        0.22015    0.51340    0.76040    1.000
    O53      O        0.19772    0.25430    0.72510    1.000
    O54      O        0.25361    0.18030    0.75860    1.000
    N7       N        0.91110    0.65560    0.59050    1.000
    N8       N        0.38711    0.34150    0.87850    1.000
    C109     C        0.12550    0.63480    0.72450    1.000
    C110     C        0.05090    0.63770    0.71050    1.000
    H61      H        0.06270    0.63010    0.75630    1.000
    C111     C        0.07610    0.64060    0.68440    1.000
    C112     C        0.00540    0.64530    0.67430    1.000
    H62      H        0.98840    0.64120    0.69720    1.000
    C113     C        0.98560    0.65770    0.61060    1.000
    C114     C        0.01330    0.65950    0.57430    1.000
    H63      H        0.00030    0.66380    0.52800    1.000
    C115     C        0.93780    0.66800    0.57260    1.000
    C116     C        0.05840    0.65470    0.60970    1.000
    H64      H        0.07680    0.65980    0.58930    1.000
    C117     C        0.76050    0.59700    0.54790    1.000
    C118     C        0.79130    0.63710    0.52970    1.000
    C119     C        0.77490    0.68480    0.47680    1.000
    H65      H        0.74480    0.68990    0.45150    1.000
    C120     C        0.80380    0.72530    0.46140    1.000
    C121     C        0.84930    0.71580    0.49820    1.000
    H66      H        0.86850    0.74180    0.48740    1.000
    C122     C        0.86590    0.66650    0.55190    1.000
    C123     C        0.83690    0.62940    0.56750    1.000
    H67      H        0.84770    0.59850    0.60390    1.000
    C124     C        0.78650    0.78060    0.40820    1.000
    C125     C        0.59450    0.38940    0.08110    1.000
    C126     C        0.54750    0.38750    0.02670    1.000
    C127     C        0.53290    0.43500    0.97590    1.000
    H68      H        0.55240    0.46890    0.97450    1.000
    C128     C        0.48910    0.43560    0.92440    1.000
    H69      H        0.48000    0.46880    0.89000    1.000
    C129     C        0.46060    0.38490    0.92750    1.000
    C130     C        0.47590    0.33720    0.97900    1.000
    H70      H        0.45670    0.30360    0.98180    1.000
    C131     C        0.51940    0.33740    0.02760    1.000
    H71      H        0.52910    0.30270    0.06070    1.000
    C132     C        0.41390    0.38680    0.87700    1.000
    C133     C        0.25970    0.50200    0.79680    1.000
    C134     C        0.27870    0.43090    0.79840    1.000
    C135     C        0.25220    0.37300    0.77220    1.000
    H72      H        0.22210    0.37970    0.74930    1.000
    C136     C        0.26890    0.30480    0.77860    1.000
    C137     C        0.31380    0.29450    0.81240    1.000
    H73      H        0.32540    0.24870    0.81780    1.000
    C138     C        0.34160    0.35310    0.83820    1.000
    C139     C        0.32340    0.42120    0.83110    1.000
    H74      H        0.34180    0.46040    0.84870    1.000
    C140     C        0.23790    0.24330    0.75290    1.000
    H75      H        0.93000    0.67800    0.52700    1.000
    H76      H        0.44000    0.38300    0.87200    1.000
    C141     C        0.04320    0.58240    0.69770    1.000
    C142     C        0.00420    0.60480    0.83740    1.000
    C143     C        0.01110    0.71520    0.62700    1.000
    C144     C        0.05640    0.69910    0.66480    1.000
    H77      H        0.05310    0.54140    0.72350    1.000
    H78      H        0.02550    0.58610    0.82640    1.000
    H79      H        0.00040    0.76120    0.61490    1.000
    H80      H        0.07470    0.73880    0.67710    1.000
    O55      O        0.13500    0.57030    0.76290    1.000
    O56      O        0.14600    0.67560    0.74050    1.000
    Cd13     Cd       0.71230    0.87579    0.29885    1.000
    Cd14     Cd       0.17522    0.93754    0.04820    1.000
    Cd15     Cd       0.32454    0.64297    0.81158    1.000
    O57      O        0.64300    0.85670    0.27930    1.000
    O58      O        0.64970    0.86790    0.18780    1.000
    O59      O        0.22049    0.90210    0.00630    1.000
    O60      O        0.27521    0.93620    0.10320    1.000
    O61      O        0.31503    0.67680    0.90510    1.000
    O62      O        0.24613    0.71670    0.87100    1.000
    O63      O        0.11860    0.06090    0.57600    1.000
    O64      O        0.10520    0.15830    0.62540    1.000
    O65      O        0.78485    0.94890    0.33510    1.000
    O66      O        0.72015    0.98660    0.26040    1.000
    O67      O        0.69772    0.24570    0.22510    1.000
    O68      O        0.75361    0.31970    0.25860    1.000
    N9       N        0.41110    0.84440    0.09050    1.000
    N10      N        0.88711    0.15850    0.37850    1.000
    C145     C        0.62550    0.86520    0.22450    1.000
    C146     C        0.55090    0.86230    0.21050    1.000
    H81      H        0.56270    0.86990    0.25630    1.000
    C147     C        0.57610    0.85940    0.18440    1.000
    C148     C        0.50540    0.85470    0.17430    1.000
    H82      H        0.48840    0.85880    0.19720    1.000
    C149     C        0.48560    0.84230    0.11060    1.000
    C150     C        0.51330    0.84050    0.07430    1.000
    H83      H        0.50030    0.83620    0.02800    1.000
    C151     C        0.43780    0.83200    0.07260    1.000
    C152     C        0.55840    0.84530    0.10970    1.000
    H84      H        0.57680    0.84020    0.08930    1.000
    C153     C        0.26050    0.90300    0.04790    1.000
    C154     C        0.29130    0.86290    0.02970    1.000
    C155     C        0.27490    0.81520    0.97680    1.000
    H85      H        0.24480    0.81010    0.95150    1.000
    C156     C        0.30380    0.77470    0.96140    1.000
    C157     C        0.34930    0.78420    0.99820    1.000
    H86      H        0.36850    0.75820    0.98740    1.000
    C158     C        0.36590    0.83350    0.05190    1.000
    C159     C        0.33690    0.87060    0.06750    1.000
    H87      H        0.34770    0.90150    0.10390    1.000
    C160     C        0.28650    0.71940    0.90820    1.000
    C161     C        0.09450    0.11060    0.58110    1.000
    C162     C        0.04750    0.11250    0.52670    1.000
    C163     C        0.03290    0.06500    0.47590    1.000
    H88      H        0.05240    0.03110    0.47450    1.000
    C164     C        0.98910    0.06440    0.42440    1.000
    H89      H        0.98000    0.03120    0.39000    1.000
    C165     C        0.96060    0.11510    0.42750    1.000
    C166     C        0.97590    0.16280    0.47900    1.000
    H90      H        0.95670    0.19640    0.48180    1.000
    C167     C        0.01940    0.16260    0.52760    1.000
    H91      H        0.02910    0.19730    0.56070    1.000
    C168     C        0.91390    0.11320    0.37700    1.000
    C169     C        0.75970    0.99800    0.29680    1.000
    C170     C        0.77870    0.06910    0.29840    1.000
    C171     C        0.75220    0.12700    0.27220    1.000
    H92      H        0.72210    0.12030    0.24930    1.000
    C172     C        0.76890    0.19520    0.27860    1.000
    C173     C        0.81380    0.20550    0.31240    1.000
    H93      H        0.82540    0.25130    0.31780    1.000
    C174     C        0.84160    0.14690    0.33820    1.000
    C175     C        0.82340    0.07880    0.33110    1.000
    H94      H        0.84180    0.03960    0.34870    1.000
    C176     C        0.73790    0.25670    0.25290    1.000
    H95      H        0.43000    0.82200    0.02700    1.000
    H96      H        0.94000    0.11700    0.37200    1.000
    C177     C        0.54320    0.91760    0.19770    1.000
    C178     C        0.50420    0.89520    0.33740    1.000
    C179     C        0.51110    0.78480    0.12700    1.000
    C180     C        0.55640    0.80090    0.16480    1.000
    H97      H        0.55310    0.95860    0.22350    1.000
    H98      H        0.52550    0.91390    0.32640    1.000
    H99      H        0.50040    0.73880    0.11490    1.000
    H100     H        0.57470    0.76120    0.17710    1.000
    O69      O        0.63500    0.92970    0.26290    1.000
    O70      O        0.64600    0.82440    0.24050    1.000
    Cd16     Cd       0.21230    0.37579    0.29885    1.000
    Cd17     Cd       0.67522    0.43754    0.04820    1.000
    Cd18     Cd       0.82454    0.14297    0.81158    1.000
    O71      O        0.14300    0.35670    0.27930    1.000
    O72      O        0.14970    0.36790    0.18780    1.000
    O73      O        0.72049    0.40210    0.00630    1.000
    O74      O        0.77521    0.43620    0.10320    1.000
    O75      O        0.81503    0.17680    0.90510    1.000
    O76      O        0.74613    0.21670    0.87100    1.000
    O77      O        0.61860    0.56090    0.57600    1.000
    O78      O        0.60520    0.65830    0.62540    1.000
    O79      O        0.28485    0.44890    0.33510    1.000
    O80      O        0.22015    0.48660    0.26040    1.000
    O81      O        0.19772    0.74570    0.22510    1.000
    O82      O        0.25361    0.81970    0.25860    1.000
    N11      N        0.91110    0.34440    0.09050    1.000
    N12      N        0.38711    0.65850    0.37850    1.000
    C181     C        0.12550    0.36520    0.22450    1.000
    C182     C        0.05090    0.36230    0.21050    1.000
    H101     H        0.06270    0.36990    0.25630    1.000
    C183     C        0.07610    0.35940    0.18440    1.000
    C184     C        0.00540    0.35470    0.17430    1.000
    H102     H        0.98840    0.35880    0.19720    1.000
    C185     C        0.98560    0.34230    0.11060    1.000
    C186     C        0.01330    0.34050    0.07430    1.000
    H103     H        0.00030    0.33620    0.02800    1.000
    C187     C        0.93780    0.33200    0.07260    1.000
    C188     C        0.05840    0.34530    0.10970    1.000
    H104     H        0.07680    0.34020    0.08930    1.000
    C189     C        0.76050    0.40300    0.04790    1.000
    C190     C        0.79130    0.36290    0.02970    1.000
    C191     C        0.77490    0.31520    0.97680    1.000
    H105     H        0.74480    0.31010    0.95150    1.000
    C192     C        0.80380    0.27470    0.96140    1.000
    C193     C        0.84930    0.28420    0.99820    1.000
    H106     H        0.86850    0.25820    0.98740    1.000
    C194     C        0.86590    0.33350    0.05190    1.000
    C195     C        0.83690    0.37060    0.06750    1.000
    H107     H        0.84770    0.40150    0.10390    1.000
    C196     C        0.78650    0.21940    0.90820    1.000
    C197     C        0.59450    0.61060    0.58110    1.000
    C198     C        0.54750    0.61250    0.52670    1.000
    C199     C        0.53290    0.56500    0.47590    1.000
    H108     H        0.55240    0.53110    0.47450    1.000
    C200     C        0.48910    0.56440    0.42440    1.000
    H109     H        0.48000    0.53120    0.39000    1.000
    C201     C        0.46060    0.61510    0.42750    1.000
    C202     C        0.47590    0.66280    0.47900    1.000
    H110     H        0.45670    0.69640    0.48180    1.000
    C203     C        0.51940    0.66260    0.52760    1.000
    H111     H        0.52910    0.69730    0.56070    1.000
    C204     C        0.41390    0.61320    0.37700    1.000
    C205     C        0.25970    0.49800    0.29680    1.000
    C206     C        0.27870    0.56910    0.29840    1.000
    C207     C        0.25220    0.62700    0.27220    1.000
    H112     H        0.22210    0.62030    0.24930    1.000
    C208     C        0.26890    0.69520    0.27860    1.000
    C209     C        0.31380    0.70550    0.31240    1.000
    H113     H        0.32540    0.75130    0.31780    1.000
    C210     C        0.34160    0.64690    0.33820    1.000
    C211     C        0.32340    0.57880    0.33110    1.000
    H114     H        0.34180    0.53960    0.34870    1.000
    C212     C        0.23790    0.75670    0.25290    1.000
    H115     H        0.93000    0.32200    0.02700    1.000
    H116     H        0.44000    0.61700    0.37200    1.000
    C213     C        0.04320    0.41760    0.19770    1.000
    C214     C        0.00420    0.39520    0.33740    1.000
    C215     C        0.01110    0.28480    0.12700    1.000
    C216     C        0.05640    0.30090    0.16480    1.000
    H117     H        0.05310    0.45860    0.22350    1.000
    H118     H        0.02550    0.41390    0.32640    1.000
    H119     H        0.00040    0.23880    0.11490    1.000
    H120     H        0.07470    0.26120    0.17710    1.000
    O83      O        0.13500    0.42970    0.26290    1.000
    O84      O        0.14600    0.32440    0.24050    1.000
    Cd19     Cd       0.28770    0.87579    0.20115    1.000
    Cd20     Cd       0.82478    0.93754    0.45180    1.000
    Cd21     Cd       0.67546    0.64297    0.68842    1.000
    O85      O        0.35700    0.85670    0.22070    1.000
    O86      O        0.35030    0.86790    0.31220    1.000
    O87      O        0.77951    0.90210    0.49370    1.000
    O88      O        0.72479    0.93620    0.39680    1.000
    O89      O        0.68497    0.67680    0.59490    1.000
    O90      O        0.75387    0.71670    0.62900    1.000
    O91      O        0.88140    0.06090    0.92400    1.000
    O92      O        0.89480    0.15830    0.87460    1.000
    O93      O        0.21515    0.94890    0.16490    1.000
    O94      O        0.27985    0.98660    0.23960    1.000
    O95      O        0.30228    0.24570    0.27490    1.000
    O96      O        0.24639    0.31970    0.24140    1.000
    N13      N        0.58890    0.84440    0.40950    1.000
    N14      N        0.11289    0.15850    0.12150    1.000
    C217     C        0.37450    0.86520    0.27550    1.000
    C218     C        0.44910    0.86230    0.28950    1.000
    H121     H        0.43730    0.86990    0.24370    1.000
    C219     C        0.42390    0.85940    0.31560    1.000
    C220     C        0.49460    0.85470    0.32570    1.000
    H122     H        0.51160    0.85880    0.30280    1.000
    C221     C        0.51440    0.84230    0.38940    1.000
    C222     C        0.48670    0.84050    0.42570    1.000
    H123     H        0.49970    0.83620    0.47200    1.000
    C223     C        0.56220    0.83200    0.42740    1.000
    C224     C        0.44160    0.84530    0.39030    1.000
    H124     H        0.42320    0.84020    0.41070    1.000
    C225     C        0.73950    0.90300    0.45210    1.000
    C226     C        0.70870    0.86290    0.47030    1.000
    C227     C        0.72510    0.81520    0.52320    1.000
    H125     H        0.75520    0.81010    0.54850    1.000
    C228     C        0.69620    0.77470    0.53860    1.000
    C229     C        0.65070    0.78420    0.50180    1.000
    H126     H        0.63150    0.75820    0.51260    1.000
    C230     C        0.63410    0.83350    0.44810    1.000
    C231     C        0.66310    0.87060    0.43250    1.000
    H127     H        0.65230    0.90150    0.39610    1.000
    C232     C        0.71350    0.71940    0.59180    1.000
    C233     C        0.90550    0.11060    0.91890    1.000
    C234     C        0.95250    0.11250    0.97330    1.000
    C235     C        0.96710    0.06500    0.02410    1.000
    H128     H        0.94760    0.03110    0.02550    1.000
    C236     C        0.01090    0.06440    0.07560    1.000
    H129     H        0.02000    0.03120    0.11000    1.000
    C237     C        0.03940    0.11510    0.07250    1.000
    C238     C        0.02410    0.16280    0.02100    1.000
    H130     H        0.04330    0.19640    0.01820    1.000
    C239     C        0.98060    0.16260    0.97240    1.000
    H131     H        0.97090    0.19730    0.93930    1.000
    C240     C        0.08610    0.11320    0.12300    1.000
    C241     C        0.24030    0.99800    0.20320    1.000
    C242     C        0.22130    0.06910    0.20160    1.000
    C243     C        0.24780    0.12700    0.22780    1.000
    H132     H        0.27790    0.12030    0.25070    1.000
    C244     C        0.23110    0.19520    0.22140    1.000
    C245     C        0.18620    0.20550    0.18760    1.000
    H133     H        0.17460    0.25130    0.18220    1.000
    C246     C        0.15840    0.14690    0.16180    1.000
    C247     C        0.17660    0.07880    0.16890    1.000
    H134     H        0.15820    0.03960    0.15130    1.000
    C248     C        0.26210    0.25670    0.24710    1.000
    H135     H        0.57000    0.82200    0.47300    1.000
    H136     H        0.06000    0.11700    0.12800    1.000
    C249     C        0.45680    0.91760    0.30230    1.000
    C250     C        0.49580    0.89520    0.16260    1.000
    C251     C        0.48890    0.78480    0.37300    1.000
    C252     C        0.44360    0.80090    0.33520    1.000
    H137     H        0.44690    0.95860    0.27650    1.000
    H138     H        0.47450    0.91390    0.17360    1.000
    H139     H        0.49960    0.73880    0.38510    1.000
    H140     H        0.42530    0.76120    0.32290    1.000
    O97      O        0.36500    0.92970    0.23710    1.000
    O98      O        0.35400    0.82440    0.25950    1.000
    Cd22     Cd       0.78770    0.37579    0.20115    1.000
    Cd23     Cd       0.32478    0.43754    0.45180    1.000
    Cd24     Cd       0.17546    0.14297    0.68842    1.000
    O99      O        0.85700    0.35670    0.22070    1.000
    O100     O        0.85030    0.36790    0.31220    1.000
    O101     O        0.27951    0.40210    0.49370    1.000
    O102     O        0.22479    0.43620    0.39680    1.000
    O103     O        0.18497    0.17680    0.59490    1.000
    O104     O        0.25387    0.21670    0.62900    1.000
    O105     O        0.38140    0.56090    0.92400    1.000
    O106     O        0.39480    0.65830    0.87460    1.000
    O107     O        0.71515    0.44890    0.16490    1.000
    O108     O        0.77985    0.48660    0.23960    1.000
    O109     O        0.80228    0.74570    0.27490    1.000
    O110     O        0.74639    0.81970    0.24140    1.000
    N15      N        0.08890    0.34440    0.40950    1.000
    N16      N        0.61289    0.65850    0.12150    1.000
    C253     C        0.87450    0.36520    0.27550    1.000
    C254     C        0.94910    0.36230    0.28950    1.000
    H141     H        0.93730    0.36990    0.24370    1.000
    C255     C        0.92390    0.35940    0.31560    1.000
    C256     C        0.99460    0.35470    0.32570    1.000
    H142     H        0.01160    0.35880    0.30280    1.000
    C257     C        0.01440    0.34230    0.38940    1.000
    C258     C        0.98670    0.34050    0.42570    1.000
    H143     H        0.99970    0.33620    0.47200    1.000
    C259     C        0.06220    0.33200    0.42740    1.000
    C260     C        0.94160    0.34530    0.39030    1.000
    H144     H        0.92320    0.34020    0.41070    1.000
    C261     C        0.23950    0.40300    0.45210    1.000
    C262     C        0.20870    0.36290    0.47030    1.000
    C263     C        0.22510    0.31520    0.52320    1.000
    H145     H        0.25520    0.31010    0.54850    1.000
    C264     C        0.19620    0.27470    0.53860    1.000
    C265     C        0.15070    0.28420    0.50180    1.000
    H146     H        0.13150    0.25820    0.51260    1.000
    C266     C        0.13410    0.33350    0.44810    1.000
    C267     C        0.16310    0.37060    0.43250    1.000
    H147     H        0.15230    0.40150    0.39610    1.000
    C268     C        0.21350    0.21940    0.59180    1.000
    C269     C        0.40550    0.61060    0.91890    1.000
    C270     C        0.45250    0.61250    0.97330    1.000
    C271     C        0.46710    0.56500    0.02410    1.000
    H148     H        0.44760    0.53110    0.02550    1.000
    C272     C        0.51090    0.56440    0.07560    1.000
    H149     H        0.52000    0.53120    0.11000    1.000
    C273     C        0.53940    0.61510    0.07250    1.000
    C274     C        0.52410    0.66280    0.02100    1.000
    H150     H        0.54330    0.69640    0.01820    1.000
    C275     C        0.48060    0.66260    0.97240    1.000
    H151     H        0.47090    0.69730    0.93930    1.000
    C276     C        0.58610    0.61320    0.12300    1.000
    C277     C        0.74030    0.49800    0.20320    1.000
    C278     C        0.72130    0.56910    0.20160    1.000
    C279     C        0.74780    0.62700    0.22780    1.000
    H152     H        0.77790    0.62030    0.25070    1.000
    C280     C        0.73110    0.69520    0.22140    1.000
    C281     C        0.68620    0.70550    0.18760    1.000
    H153     H        0.67460    0.75130    0.18220    1.000
    C282     C        0.65840    0.64690    0.16180    1.000
    C283     C        0.67660    0.57880    0.16890    1.000
    H154     H        0.65820    0.53960    0.15130    1.000
    C284     C        0.76210    0.75670    0.24710    1.000
    H155     H        0.07000    0.32200    0.47300    1.000
    H156     H        0.56000    0.61700    0.12800    1.000
    C285     C        0.95680    0.41760    0.30230    1.000
    C286     C        0.99580    0.39520    0.16260    1.000
    C287     C        0.98890    0.28480    0.37300    1.000
    C288     C        0.94360    0.30090    0.33520    1.000
    H157     H        0.94690    0.45860    0.27650    1.000
    H158     H        0.97450    0.41390    0.17360    1.000
    H159     H        0.99960    0.23880    0.38510    1.000
    H160     H        0.92530    0.26120    0.32290    1.000
    O111     O        0.86500    0.42970    0.23710    1.000
    O112     O        0.85400    0.32440    0.25950    1.000
