# CIF file generated by openbabel 3.1.0, see https://openbabel.org
data_I
_chemical_name_common 'image0'
_cell_length_a 10.903
_cell_length_b 10.96
_cell_length_c 14.84
_cell_angle_alpha 82.55
_cell_angle_beta 85.61
_cell_angle_gamma 88.79
_space_group_name_H-M_alt 'P 1'
_space_group_name_Hall 'P 1'
loop_
    _symmetry_equiv_pos_as_xyz
    x,y,z
loop_
    _atom_site_label
    _atom_site_type_symbol
    _atom_site_fract_x
    _atom_site_fract_y
    _atom_site_fract_z
    _atom_site_occupancy
    Zn1      Zn       0.44930    0.78383    0.39492    1.000
    Zn2      Zn       0.45129    0.82184    0.18907    1.000
    O1       O        0.63680    0.77850    0.40740    1.000
    O2       O        0.62220    0.79890    0.25710    1.000
    O3       O        0.28000    0.80520    0.32760    1.000
    O4       O        0.26470    0.83210    0.17640    1.000
    O5       O        0.45540    0.97100    0.36690    1.000
    O6       O        0.45700    0.99910    0.21150    1.000
    O7       O        0.44330    0.63470    0.21730    1.000
    O8       O        0.44450    0.60610    0.37210    1.000
    N1       N        0.34690    0.77560    0.51830    1.000
    N2       N        0.55860    0.82810    0.06750    1.000
    F1       F        0.18900    0.88110    0.82950    1.000
    F2       F        0.00190    0.90020    0.95340    1.000
    C1       C        0.82240    0.79420    0.30900    1.000
    C2       C        0.89800    0.78290    0.38190    1.000
    H1       H        0.86310    0.76980    0.44150    1.000
    C3       C        0.02520    0.79110    0.36540    1.000
    H2       H        0.07480    0.78420    0.41410    1.000
    C4       C        0.07880    0.80970    0.27640    1.000
    C5       C        0.00180    0.82140    0.20170    1.000
    H3       H        0.03550    0.83550    0.14180    1.000
    C6       C        0.87620    0.81120    0.22080    1.000
    H4       H        0.82580    0.81600    0.17260    1.000
    C7       C        0.68330    0.78810    0.32600    1.000
    C8       C        0.21830    0.81550    0.25900    1.000
    C9       C        0.45090    0.17560    0.29050    1.000
    C10      C        0.40210    0.22450    0.36930    1.000
    H5       H        0.37100    0.17240    0.42010    1.000
    C11      C        0.40090    0.35210    0.37040    1.000
    H6       H        0.37110    0.38460    0.42280    1.000
    C12      C        0.44450    0.43190    0.29290    1.000
    C13      C        0.49350    0.38210    0.21520    1.000
    H7       H        0.52350    0.43470    0.16440    1.000
    C14      C        0.49790    0.25440    0.21270    1.000
    H8       H        0.53110    0.22220    0.16100    1.000
    C15      C        0.45410    0.03780    0.28900    1.000
    C16      C        0.44420    0.56830    0.29410    1.000
    C17      C        0.31920    0.87740    0.55580    1.000
    H9       H        0.36190    0.94860    0.53280    1.000
    C18      C        0.23010    0.88400    0.62750    1.000
    H10      H        0.21230    0.95760    0.65090    1.000
    C19      C        0.16860    0.77560    0.66280    1.000
    C20      C        0.19940    0.66780    0.62730    1.000
    H11      H        0.16040    0.59480    0.65130    1.000
    C21      C        0.28960    0.66920    0.55500    1.000
    H12      H        0.31100    0.59630    0.53150    1.000
    C22      C        0.06490    0.78030    0.73540    1.000
    C23      C        0.94860    0.73210    0.72580    1.000
    H13      H        0.93730    0.69350    0.67480    1.000
    C24      C        0.84920    0.74050    0.79090    1.000
    H14      H        0.77350    0.70760    0.78300    1.000
    C25      C        0.86520    0.79990    0.86920    1.000
    C26      C        0.98040    0.84700    0.87880    1.000
    C27      C        0.07810    0.83660    0.81270    1.000
    C28      C        0.75790    0.81230    0.93710    1.000
    C29      C        0.67920    0.71440    0.96380    1.000
    H15      H        0.69140    0.64170    0.93810    1.000
    C30      C        0.58210    0.72460    0.02890    1.000
    H16      H        0.53140    0.65720    0.04650    1.000
    C31      C        0.63220    0.92440    0.04010    1.000
    H17      H        0.61540    0.99700    0.06530    1.000
    C32      C        0.73300    0.92210    0.97580    1.000
    H18      H        0.78200    0.99090    0.95910    1.000
    Zn3      Zn       0.55070    0.21617    0.60508    1.000
    Zn4      Zn       0.54871    0.17816    0.81093    1.000
    O9       O        0.36320    0.22150    0.59260    1.000
    O10      O        0.37780    0.20110    0.74290    1.000
    O11      O        0.72000    0.19480    0.67240    1.000
    O12      O        0.73530    0.16790    0.82360    1.000
    O13      O        0.54460    0.02900    0.63310    1.000
    O14      O        0.54300    0.00090    0.78850    1.000
    O15      O        0.55670    0.36530    0.78270    1.000
    O16      O        0.55550    0.39390    0.62790    1.000
    N3       N        0.65310    0.22440    0.48170    1.000
    N4       N        0.44140    0.17190    0.93250    1.000
    F3       F        0.81100    0.11890    0.17050    1.000
    F4       F        0.99810    0.09980    0.04660    1.000
    C33      C        0.17760    0.20580    0.69100    1.000
    C34      C        0.10200    0.21710    0.61810    1.000
    H19      H        0.13690    0.23020    0.55850    1.000
    C35      C        0.97480    0.20890    0.63460    1.000
    H20      H        0.92520    0.21580    0.58590    1.000
    C36      C        0.92120    0.19030    0.72360    1.000
    C37      C        0.99820    0.17860    0.79830    1.000
    H21      H        0.96450    0.16450    0.85820    1.000
    C38      C        0.12380    0.18880    0.77920    1.000
    H22      H        0.17420    0.18400    0.82740    1.000
    C39      C        0.31670    0.21190    0.67400    1.000
    C40      C        0.78170    0.18450    0.74100    1.000
    C41      C        0.54910    0.82440    0.70950    1.000
    C42      C        0.59790    0.77550    0.63070    1.000
    H23      H        0.62900    0.82760    0.57990    1.000
    C43      C        0.59910    0.64790    0.62960    1.000
    H24      H        0.62890    0.61540    0.57720    1.000
    C44      C        0.55550    0.56810    0.70710    1.000
    C45      C        0.50650    0.61790    0.78480    1.000
    H25      H        0.47650    0.56530    0.83560    1.000
    C46      C        0.50210    0.74560    0.78730    1.000
    H26      H        0.46890    0.77780    0.83900    1.000
    C47      C        0.54590    0.96220    0.71100    1.000
    C48      C        0.55580    0.43170    0.70590    1.000
    C49      C        0.68080    0.12260    0.44420    1.000
    H27      H        0.63810    0.05140    0.46720    1.000
    C50      C        0.76990    0.11600    0.37250    1.000
    H28      H        0.78770    0.04240    0.34910    1.000
    C51      C        0.83140    0.22440    0.33720    1.000
    C52      C        0.80060    0.33220    0.37270    1.000
    H29      H        0.83960    0.40520    0.34870    1.000
    C53      C        0.71040    0.33080    0.44500    1.000
    H30      H        0.68900    0.40370    0.46850    1.000
    C54      C        0.93510    0.21970    0.26460    1.000
    C55      C        0.05140    0.26790    0.27420    1.000
    H31      H        0.06270    0.30650    0.32520    1.000
    C56      C        0.15080    0.25950    0.20910    1.000
    H32      H        0.22650    0.29240    0.21700    1.000
    C57      C        0.13480    0.20010    0.13080    1.000
    C58      C        0.01960    0.15300    0.12120    1.000
    C59      C        0.92190    0.16340    0.18730    1.000
    C60      C        0.24210    0.18770    0.06290    1.000
    C61      C        0.32080    0.28560    0.03620    1.000
    H33      H        0.30860    0.35830    0.06190    1.000
    C62      C        0.41790    0.27540    0.97110    1.000
    H34      H        0.46860    0.34280    0.95350    1.000
    C63      C        0.36780    0.07560    0.95990    1.000
    H35      H        0.38460    0.00300    0.93470    1.000
    C64      C        0.26700    0.07790    0.02420    1.000
    H36      H        0.21800    0.00910    0.04090    1.000
