# CIF file generated by openbabel 3.1.0, see https://openbabel.org
data_I
_chemical_name_common 'image0'
_cell_length_a 21.8108
_cell_length_b 21.8108
_cell_length_c 16.0953
_cell_angle_alpha 90
_cell_angle_beta 90
_cell_angle_gamma 90
_space_group_name_H-M_alt 'P 1'
_space_group_name_Hall 'P 1'
loop_
    _symmetry_equiv_pos_as_xyz
    x,y,z
loop_
    _atom_site_label
    _atom_site_type_symbol
    _atom_site_fract_x
    _atom_site_fract_y
    _atom_site_fract_z
    _atom_site_occupancy
    Dy1      Dy       0.88384    0.41659    0.12352    1.000
    O1       O        0.86090    0.49540    0.02330    1.000
    O2       O        0.82290    0.52690    0.90200    1.000
    O3       O        0.87620    0.30890    0.11010    1.000
    O4       O        0.83550    0.22600    0.05240    1.000
    N1       N        0.83220    0.38180    0.99600    1.000
    C1       C        0.81780    0.32290    0.98810    1.000
    C2       C        0.78310    0.30140    0.92220    1.000
    H1       H        0.77330    0.26010    0.91770    1.000
    C3       C        0.76350    0.34290    0.86380    1.000
    H2       H        0.73920    0.32980    0.81970    1.000
    C4       C        0.77970    0.40370    0.87040    1.000
    H3       H        0.76780    0.43190    0.83030    1.000
    C5       C        0.81420    0.42160    0.93840    1.000
    C6       C        0.83400    0.48610    0.95430    1.000
    C7       C        0.84500    0.28230    0.05480    1.000
    Dy2      Dy       0.38384    0.91659    0.62352    1.000
    O5       O        0.36090    0.99540    0.52330    1.000
    O6       O        0.32290    0.02690    0.40200    1.000
    O7       O        0.37620    0.80890    0.61010    1.000
    O8       O        0.33550    0.72600    0.55240    1.000
    N2       N        0.33220    0.88180    0.49600    1.000
    C8       C        0.31780    0.82290    0.48810    1.000
    C9       C        0.28310    0.80140    0.42220    1.000
    H4       H        0.27330    0.76010    0.41770    1.000
    C10      C        0.26350    0.84290    0.36380    1.000
    H5       H        0.23920    0.82980    0.31970    1.000
    C11      C        0.27970    0.90370    0.37040    1.000
    H6       H        0.26780    0.93190    0.33030    1.000
    C12      C        0.31420    0.92160    0.43840    1.000
    C13      C        0.33400    0.98610    0.45430    1.000
    C14      C        0.34500    0.78230    0.55480    1.000
    Dy3      Dy       0.61616    0.58341    0.62352    1.000
    O9       O        0.63910    0.50460    0.52330    1.000
    O10      O        0.67710    0.47310    0.40200    1.000
    O11      O        0.62380    0.69110    0.61010    1.000
    O12      O        0.66450    0.77400    0.55240    1.000
    N3       N        0.66780    0.61820    0.49600    1.000
    C15      C        0.68220    0.67710    0.48810    1.000
    C16      C        0.71690    0.69860    0.42220    1.000
    H7       H        0.72670    0.73990    0.41770    1.000
    C17      C        0.73650    0.65710    0.36380    1.000
    H8       H        0.76080    0.67020    0.31970    1.000
    C18      C        0.72030    0.59630    0.37040    1.000
    H9       H        0.73220    0.56810    0.33030    1.000
    C19      C        0.68580    0.57840    0.43840    1.000
    C20      C        0.66600    0.51390    0.45430    1.000
    C21      C        0.65500    0.71770    0.55480    1.000
    Dy4      Dy       0.11616    0.08341    0.12352    1.000
    O13      O        0.13910    0.00460    0.02330    1.000
    O14      O        0.17710    0.97310    0.90200    1.000
    O15      O        0.12380    0.19110    0.11010    1.000
    O16      O        0.16450    0.27400    0.05240    1.000
    N4       N        0.16780    0.11820    0.99600    1.000
    C22      C        0.18220    0.17710    0.98810    1.000
    C23      C        0.21690    0.19860    0.92220    1.000
    H10      H        0.22670    0.23990    0.91770    1.000
    C24      C        0.23650    0.15710    0.86380    1.000
    H11      H        0.26080    0.17020    0.81970    1.000
    C25      C        0.22030    0.09630    0.87040    1.000
    H12      H        0.23220    0.06810    0.83030    1.000
    C26      C        0.18580    0.07840    0.93840    1.000
    C27      C        0.16600    0.01390    0.95430    1.000
    C28      C        0.15500    0.21770    0.05480    1.000
    Dy5      Dy       0.33341    0.13384    0.37352    1.000
    O17      O        0.25460    0.11090    0.27330    1.000
    O18      O        0.22310    0.07290    0.15200    1.000
    O19      O        0.44110    0.12620    0.36010    1.000
    O20      O        0.52400    0.08550    0.30240    1.000
    N5       N        0.36820    0.08220    0.24600    1.000
    C29      C        0.42710    0.06780    0.23810    1.000
    C30      C        0.44860    0.03310    0.17220    1.000
    H13      H        0.48990    0.02330    0.16770    1.000
    C31      C        0.40710    0.01350    0.11380    1.000
    H14      H        0.42020    0.98920    0.06970    1.000
    C32      C        0.34630    0.02970    0.12040    1.000
    H15      H        0.31810    0.01780    0.08030    1.000
    C33      C        0.32840    0.06420    0.18840    1.000
    C34      C        0.26390    0.08400    0.20430    1.000
    C35      C        0.46770    0.09500    0.30480    1.000
    Dy6      Dy       0.83341    0.63384    0.87352    1.000
    O21      O        0.75460    0.61090    0.77330    1.000
    O22      O        0.72310    0.57290    0.65200    1.000
    O23      O        0.94110    0.62620    0.86010    1.000
    O24      O        0.02400    0.58550    0.80240    1.000
    N6       N        0.86820    0.58220    0.74600    1.000
    C36      C        0.92710    0.56780    0.73810    1.000
    C37      C        0.94860    0.53310    0.67220    1.000
    H16      H        0.98990    0.52330    0.66770    1.000
    C38      C        0.90710    0.51350    0.61380    1.000
    H17      H        0.92020    0.48920    0.56970    1.000
    C39      C        0.84630    0.52970    0.62040    1.000
    H18      H        0.81810    0.51780    0.58030    1.000
    C40      C        0.82840    0.56420    0.68840    1.000
    C41      C        0.76390    0.58400    0.70430    1.000
    C42      C        0.96770    0.59500    0.80480    1.000
    Dy7      Dy       0.16659    0.86616    0.87352    1.000
    O25      O        0.24540    0.88910    0.77330    1.000
    O26      O        0.27690    0.92710    0.65200    1.000
    O27      O        0.05890    0.87380    0.86010    1.000
    O28      O        0.97600    0.91450    0.80240    1.000
    N7       N        0.13180    0.91780    0.74600    1.000
    C43      C        0.07290    0.93220    0.73810    1.000
    C44      C        0.05140    0.96690    0.67220    1.000
    H19      H        0.01010    0.97670    0.66770    1.000
    C45      C        0.09290    0.98650    0.61380    1.000
    H20      H        0.07980    0.01080    0.56970    1.000
    C46      C        0.15370    0.97030    0.62040    1.000
    H21      H        0.18190    0.98220    0.58030    1.000
    C47      C        0.17160    0.93580    0.68840    1.000
    C48      C        0.23610    0.91600    0.70430    1.000
    C49      C        0.03230    0.90500    0.80480    1.000
    Dy8      Dy       0.66659    0.36616    0.37352    1.000
    O29      O        0.74540    0.38910    0.27330    1.000
    O30      O        0.77690    0.42710    0.15200    1.000
    O31      O        0.55890    0.37380    0.36010    1.000
    O32      O        0.47600    0.41450    0.30240    1.000
    N8       N        0.63180    0.41780    0.24600    1.000
    C50      C        0.57290    0.43220    0.23810    1.000
    C51      C        0.55140    0.46690    0.17220    1.000
    H22      H        0.51010    0.47670    0.16770    1.000
    C52      C        0.59290    0.48650    0.11380    1.000
    H23      H        0.57980    0.51080    0.06970    1.000
    C53      C        0.65370    0.47030    0.12040    1.000
    H24      H        0.68190    0.48220    0.08030    1.000
    C54      C        0.67160    0.43580    0.18840    1.000
    C55      C        0.73610    0.41600    0.20430    1.000
    C56      C        0.53230    0.40500    0.30480    1.000
    Dy9      Dy       0.11616    0.58341    0.87648    1.000
    O33      O        0.13910    0.50460    0.97670    1.000
    O34      O        0.17710    0.47310    0.09800    1.000
    O35      O        0.12380    0.69110    0.88990    1.000
    O36      O        0.16450    0.77400    0.94760    1.000
    N9       N        0.16780    0.61820    0.00400    1.000
    C57      C        0.18220    0.67710    0.01190    1.000
    C58      C        0.21690    0.69860    0.07780    1.000
    H25      H        0.22670    0.73990    0.08230    1.000
    C59      C        0.23650    0.65710    0.13620    1.000
    H26      H        0.26080    0.67020    0.18030    1.000
    C60      C        0.22030    0.59630    0.12960    1.000
    H27      H        0.23220    0.56810    0.16970    1.000
    C61      C        0.18580    0.57840    0.06160    1.000
    C62      C        0.16600    0.51390    0.04570    1.000
    C63      C        0.15500    0.71770    0.94520    1.000
    Dy10     Dy       0.61616    0.08341    0.37648    1.000
    O37      O        0.63910    0.00460    0.47670    1.000
    O38      O        0.67710    0.97310    0.59800    1.000
    O39      O        0.62380    0.19110    0.38990    1.000
    O40      O        0.66450    0.27400    0.44760    1.000
    N10      N        0.66780    0.11820    0.50400    1.000
    C64      C        0.68220    0.17710    0.51190    1.000
    C65      C        0.71690    0.19860    0.57780    1.000
    H28      H        0.72670    0.23990    0.58230    1.000
    C66      C        0.73650    0.15710    0.63620    1.000
    H29      H        0.76080    0.17020    0.68030    1.000
    C67      C        0.72030    0.09630    0.62960    1.000
    H30      H        0.73220    0.06810    0.66970    1.000
    C68      C        0.68580    0.07840    0.56160    1.000
    C69      C        0.66600    0.01390    0.54570    1.000
    C70      C        0.65500    0.21770    0.44520    1.000
    Dy11     Dy       0.38384    0.41659    0.37648    1.000
    O41      O        0.36090    0.49540    0.47670    1.000
    O42      O        0.32290    0.52690    0.59800    1.000
    O43      O        0.37620    0.30890    0.38990    1.000
    O44      O        0.33550    0.22600    0.44760    1.000
    N11      N        0.33220    0.38180    0.50400    1.000
    C71      C        0.31780    0.32290    0.51190    1.000
    C72      C        0.28310    0.30140    0.57780    1.000
    H31      H        0.27330    0.26010    0.58230    1.000
    C73      C        0.26350    0.34290    0.63620    1.000
    H32      H        0.23920    0.32980    0.68030    1.000
    C74      C        0.27970    0.40370    0.62960    1.000
    H33      H        0.26780    0.43190    0.66970    1.000
    C75      C        0.31420    0.42160    0.56160    1.000
    C76      C        0.33400    0.48610    0.54570    1.000
    C77      C        0.34500    0.28230    0.44520    1.000
    Dy12     Dy       0.88384    0.91659    0.87648    1.000
    O45      O        0.86090    0.99540    0.97670    1.000
    O46      O        0.82290    0.02690    0.09800    1.000
    O47      O        0.87620    0.80890    0.88990    1.000
    O48      O        0.83550    0.72600    0.94760    1.000
    N12      N        0.83220    0.88180    0.00400    1.000
    C78      C        0.81780    0.82290    0.01190    1.000
    C79      C        0.78310    0.80140    0.07780    1.000
    H34      H        0.77330    0.76010    0.08230    1.000
    C80      C        0.76350    0.84290    0.13620    1.000
    H35      H        0.73920    0.82980    0.18030    1.000
    C81      C        0.77970    0.90370    0.12960    1.000
    H36      H        0.76780    0.93190    0.16970    1.000
    C82      C        0.81420    0.92160    0.06160    1.000
    C83      C        0.83400    0.98610    0.04570    1.000
    C84      C        0.84500    0.78230    0.94520    1.000
    Dy13     Dy       0.66659    0.86616    0.62648    1.000
    O49      O        0.74540    0.88910    0.72670    1.000
    O50      O        0.77690    0.92710    0.84800    1.000
    O51      O        0.55890    0.87380    0.63990    1.000
    O52      O        0.47600    0.91450    0.69760    1.000
    N13      N        0.63180    0.91780    0.75400    1.000
    C85      C        0.57290    0.93220    0.76190    1.000
    C86      C        0.55140    0.96690    0.82780    1.000
    H37      H        0.51010    0.97670    0.83230    1.000
    C87      C        0.59290    0.98650    0.88620    1.000
    H38      H        0.57980    0.01080    0.93030    1.000
    C88      C        0.65370    0.97030    0.87960    1.000
    H39      H        0.68190    0.98220    0.91970    1.000
    C89      C        0.67160    0.93580    0.81160    1.000
    C90      C        0.73610    0.91600    0.79570    1.000
    C91      C        0.53230    0.90500    0.69520    1.000
    Dy14     Dy       0.16659    0.36616    0.12648    1.000
    O53      O        0.24540    0.38910    0.22670    1.000
    O54      O        0.27690    0.42710    0.34800    1.000
    O55      O        0.05890    0.37380    0.13990    1.000
    O56      O        0.97600    0.41450    0.19760    1.000
    N14      N        0.13180    0.41780    0.25400    1.000
    C92      C        0.07290    0.43220    0.26190    1.000
    C93      C        0.05140    0.46690    0.32780    1.000
    H40      H        0.01010    0.47670    0.33230    1.000
    C94      C        0.09290    0.48650    0.38620    1.000
    H41      H        0.07980    0.51080    0.43030    1.000
    C95      C        0.15370    0.47030    0.37960    1.000
    H42      H        0.18190    0.48220    0.41970    1.000
    C96      C        0.17160    0.43580    0.31160    1.000
    C97      C        0.23610    0.41600    0.29570    1.000
    C98      C        0.03230    0.40500    0.19520    1.000
    Dy15     Dy       0.83341    0.13384    0.12648    1.000
    O57      O        0.75460    0.11090    0.22670    1.000
    O58      O        0.72310    0.07290    0.34800    1.000
    O59      O        0.94110    0.12620    0.13990    1.000
    O60      O        0.02400    0.08550    0.19760    1.000
    N15      N        0.86820    0.08220    0.25400    1.000
    C99      C        0.92710    0.06780    0.26190    1.000
    C100     C        0.94860    0.03310    0.32780    1.000
    H43      H        0.98990    0.02330    0.33230    1.000
    C101     C        0.90710    0.01350    0.38620    1.000
    H44      H        0.92020    0.98920    0.43030    1.000
    C102     C        0.84630    0.02970    0.37960    1.000
    H45      H        0.81810    0.01780    0.41970    1.000
    C103     C        0.82840    0.06420    0.31160    1.000
    C104     C        0.76390    0.08400    0.29570    1.000
    C105     C        0.96770    0.09500    0.19520    1.000
    Dy16     Dy       0.33341    0.63384    0.62648    1.000
    O61      O        0.25460    0.61090    0.72670    1.000
    O62      O        0.22310    0.57290    0.84800    1.000
    O63      O        0.44110    0.62620    0.63990    1.000
    O64      O        0.52400    0.58550    0.69760    1.000
    N16      N        0.36820    0.58220    0.75400    1.000
    C106     C        0.42710    0.56780    0.76190    1.000
    C107     C        0.44860    0.53310    0.82780    1.000
    H46      H        0.48990    0.52330    0.83230    1.000
    C108     C        0.40710    0.51350    0.88620    1.000
    H47      H        0.42020    0.48920    0.93030    1.000
    C109     C        0.34630    0.52970    0.87960    1.000
    H48      H        0.31810    0.51780    0.91970    1.000
    C110     C        0.32840    0.56420    0.81160    1.000
    C111     C        0.26390    0.58400    0.79570    1.000
    C112     C        0.46770    0.59500    0.69520    1.000
