# CIF file generated by openbabel 3.1.0, see https://openbabel.org
data_I
_chemical_name_common 'image0'
_cell_length_a 18.369
_cell_length_b 17.305
_cell_length_c 28.133
_cell_angle_alpha 90
_cell_angle_beta 91.083
_cell_angle_gamma 90
_space_group_name_H-M_alt 'P 1'
_space_group_name_Hall 'P 1'
loop_
    _symmetry_equiv_pos_as_xyz
    x,y,z
loop_
    _atom_site_label
    _atom_site_type_symbol
    _atom_site_fract_x
    _atom_site_fract_y
    _atom_site_fract_z
    _atom_site_occupancy
    Cd1      Cd       0.44030    0.73761    0.52442    1.000
    Cl1      Cl       0.54095    0.62699    0.53146    1.000
    Cl2      Cl       0.34791    0.85010    0.51819    1.000
    O1       O        0.58714    0.89425    0.30385    1.000
    O2       O        0.77485    0.08448    0.29757    1.000
    O3       O        0.76135    0.88547    0.24634    1.000
    O4       O        0.58901    0.09099    0.25017    1.000
    N1       N        0.51130    0.80560    0.46946    1.000
    N2       N        0.88700    0.16510    0.46217    1.000
    N3       N        0.86670    0.82120    0.08055    1.000
    N4       N        0.50631    0.19810    0.08476    1.000
    C1       C        0.47590    0.16000    0.11997    1.000
    H1       H        0.42590    0.16430    0.12350    1.000
    C2       C        0.51440    0.11410    0.15176    1.000
    H2       H        0.49060    0.08990    0.17660    1.000
    C3       C        0.58980    0.10450    0.14626    1.000
    C4       C        0.57880    0.19190    0.08047    1.000
    H3       H        0.60130    0.22020    0.05680    1.000
    C5       C        0.62110    0.14600    0.10923    1.000
    H4       H        0.67090    0.14240    0.10420    1.000
    C6       C        0.51790    0.88200    0.47479    1.000
    H5       H        0.49300    0.90590    0.49920    1.000
    C7       C        0.56020    0.92710    0.44546    1.000
    H6       H        0.56550    0.97970    0.45130    1.000
    C8       C        0.59440    0.89320    0.40770    1.000
    C9       C        0.58640    0.81400    0.40172    1.000
    H7       H        0.60840    0.78900    0.37650    1.000
    C10      C        0.54580    0.77280    0.43346    1.000
    H8       H        0.54220    0.71960    0.42960    1.000
    C11      C        0.64090    0.94180    0.37710    1.000
    C12      C        0.69290    0.98850    0.39933    1.000
    H9       H        0.69680    0.98830    0.43230    1.000
    C13      C        0.73950    0.03570    0.37364    1.000
    C14      C        0.73280    0.03620    0.32426    1.000
    C15      C        0.63590    0.94200    0.32777    1.000
    C16      C        0.68070    0.98860    0.30097    1.000
    C17      C        0.51150    0.91630    0.30876    1.000
    H10      H        0.50060    0.92110    0.34190    1.000
    H11      H        0.48080    0.87760    0.29450    1.000
    H12      H        0.50320    0.96500    0.29320    1.000
    C18      C        0.84770    0.05510    0.29053    1.000
    H13      H        0.87180    0.04820    0.32080    1.000
    H14      H        0.87470    0.09120    0.27190    1.000
    H15      H        0.84500    0.00640    0.27430    1.000
    C19      C        0.79430    0.08180    0.40128    1.000
    C20      C        0.83640    0.04530    0.43649    1.000
    H16      H        0.83400    0.99200    0.44030    1.000
    C21      C        0.88140    0.08850    0.46537    1.000
    H17      H        0.90950    0.06310    0.48840    1.000
    C22      C        0.84820    0.20020    0.42749    1.000
    H18      H        0.85240    0.25350    0.42430    1.000
    C23      C        0.80240    0.16080    0.39616    1.000
    H19      H        0.77750    0.18710    0.37210    1.000
    C24      C        0.67710    0.98980    0.24813    1.000
    C25      C        0.71990    0.93990    0.22193    1.000
    C26      C        0.72330    0.94520    0.17242    1.000
    C27      C        0.67990    0.00060    0.14973    1.000
    H20      H        0.68160    0.00480    0.11680    1.000
    C28      C        0.63420    0.04980    0.17450    1.000
    C29      C        0.63400    0.04450    0.22383    1.000
    C30      C        0.61260    0.16910    0.25511    1.000
    H21      H        0.65750    0.17060    0.27310    1.000
    H22      H        0.57630    0.19840    0.27130    1.000
    H23      H        0.62000    0.19100    0.22420    1.000
    C31      C        0.72810    0.80960    0.24640    1.000
    H24      H        0.68050    0.81290    0.25970    1.000
    H25      H        0.75770    0.77490    0.26510    1.000
    H26      H        0.72420    0.79070    0.21440    1.000
    C32      C        0.77250    0.89780    0.14277    1.000
    C33      C        0.84420    0.87960    0.15663    1.000
    H27      H        0.86170    0.89220    0.18690    1.000
    C34      C        0.88830    0.84270    0.12465    1.000
    H28      H        0.93610    0.83200    0.13410    1.000
    C35      C        0.79720    0.83590    0.06825    1.000
    H29      H        0.78020    0.81940    0.03860    1.000
    C36      C        0.74970    0.87430    0.09741    1.000
    H30      H        0.70240    0.88460    0.08680    1.000
    Cd2      Cd       0.94030    0.23761    0.52442    1.000
    Cl3      Cl       0.04095    0.12699    0.53146    1.000
    Cl4      Cl       0.84791    0.35010    0.51819    1.000
    O5       O        0.08714    0.39425    0.30385    1.000
    O6       O        0.27485    0.58448    0.29757    1.000
    O7       O        0.26135    0.38547    0.24634    1.000
    O8       O        0.08901    0.59099    0.25017    1.000
    N5       N        0.01130    0.30560    0.46946    1.000
    N6       N        0.38700    0.66510    0.46217    1.000
    N7       N        0.36670    0.32120    0.08055    1.000
    N8       N        0.00631    0.69810    0.08476    1.000
    C37      C        0.97590    0.66000    0.11997    1.000
    H31      H        0.92590    0.66430    0.12350    1.000
    C38      C        0.01440    0.61410    0.15176    1.000
    H32      H        0.99060    0.58990    0.17660    1.000
    C39      C        0.08980    0.60450    0.14626    1.000
    C40      C        0.07880    0.69190    0.08047    1.000
    H33      H        0.10130    0.72020    0.05680    1.000
    C41      C        0.12110    0.64600    0.10923    1.000
    H34      H        0.17090    0.64240    0.10420    1.000
    C42      C        0.01790    0.38200    0.47479    1.000
    H35      H        0.99300    0.40590    0.49920    1.000
    C43      C        0.06020    0.42710    0.44546    1.000
    H36      H        0.06550    0.47970    0.45130    1.000
    C44      C        0.09440    0.39320    0.40770    1.000
    C45      C        0.08640    0.31400    0.40172    1.000
    H37      H        0.10840    0.28900    0.37650    1.000
    C46      C        0.04580    0.27280    0.43346    1.000
    H38      H        0.04220    0.21960    0.42960    1.000
    C47      C        0.14090    0.44180    0.37710    1.000
    C48      C        0.19290    0.48850    0.39933    1.000
    H39      H        0.19680    0.48830    0.43230    1.000
    C49      C        0.23950    0.53570    0.37364    1.000
    C50      C        0.23280    0.53620    0.32426    1.000
    C51      C        0.13590    0.44200    0.32777    1.000
    C52      C        0.18070    0.48860    0.30097    1.000
    C53      C        0.01150    0.41630    0.30876    1.000
    H40      H        0.00060    0.42110    0.34190    1.000
    H41      H        0.98080    0.37760    0.29450    1.000
    H42      H        0.00320    0.46500    0.29320    1.000
    C54      C        0.34770    0.55510    0.29053    1.000
    H43      H        0.37180    0.54820    0.32080    1.000
    H44      H        0.37470    0.59120    0.27190    1.000
    H45      H        0.34500    0.50640    0.27430    1.000
    C55      C        0.29430    0.58180    0.40128    1.000
    C56      C        0.33640    0.54530    0.43649    1.000
    H46      H        0.33400    0.49200    0.44030    1.000
    C57      C        0.38140    0.58850    0.46537    1.000
    H47      H        0.40950    0.56310    0.48840    1.000
    C58      C        0.34820    0.70020    0.42749    1.000
    H48      H        0.35240    0.75350    0.42430    1.000
    C59      C        0.30240    0.66080    0.39616    1.000
    H49      H        0.27750    0.68710    0.37210    1.000
    C60      C        0.17710    0.48980    0.24813    1.000
    C61      C        0.21990    0.43990    0.22193    1.000
    C62      C        0.22330    0.44520    0.17242    1.000
    C63      C        0.17990    0.50060    0.14973    1.000
    H50      H        0.18160    0.50480    0.11680    1.000
    C64      C        0.13420    0.54980    0.17450    1.000
    C65      C        0.13400    0.54450    0.22383    1.000
    C66      C        0.11260    0.66910    0.25511    1.000
    H51      H        0.15750    0.67060    0.27310    1.000
    H52      H        0.07630    0.69840    0.27130    1.000
    H53      H        0.12000    0.69100    0.22420    1.000
    C67      C        0.22810    0.30960    0.24640    1.000
    H54      H        0.18050    0.31290    0.25970    1.000
    H55      H        0.25770    0.27490    0.26510    1.000
    H56      H        0.22420    0.29070    0.21440    1.000
    C68      C        0.27250    0.39780    0.14277    1.000
    C69      C        0.34420    0.37960    0.15663    1.000
    H57      H        0.36170    0.39220    0.18690    1.000
    C70      C        0.38830    0.34270    0.12465    1.000
    H58      H        0.43610    0.33200    0.13410    1.000
    C71      C        0.29720    0.33590    0.06825    1.000
    H59      H        0.28020    0.31940    0.03860    1.000
    C72      C        0.24970    0.37430    0.09741    1.000
    H60      H        0.20240    0.38460    0.08680    1.000
    Cd3      Cd       0.44030    0.26239    0.02442    1.000
    Cl5      Cl       0.54095    0.37301    0.03146    1.000
    Cl6      Cl       0.34791    0.14990    0.01819    1.000
    O9       O        0.58714    0.10575    0.80385    1.000
    O10      O        0.77485    0.91552    0.79757    1.000
    O11      O        0.76135    0.11453    0.74634    1.000
    O12      O        0.58901    0.90901    0.75017    1.000
    N9       N        0.51130    0.19440    0.96946    1.000
    N10      N        0.88700    0.83490    0.96217    1.000
    N11      N        0.86670    0.17880    0.58055    1.000
    N12      N        0.50631    0.80190    0.58476    1.000
    C73      C        0.47590    0.84000    0.61997    1.000
    H61      H        0.42590    0.83570    0.62350    1.000
    C74      C        0.51440    0.88590    0.65176    1.000
    H62      H        0.49060    0.91010    0.67660    1.000
    C75      C        0.58980    0.89550    0.64626    1.000
    C76      C        0.57880    0.80810    0.58047    1.000
    H63      H        0.60130    0.77980    0.55680    1.000
    C77      C        0.62110    0.85400    0.60923    1.000
    H64      H        0.67090    0.85760    0.60420    1.000
    C78      C        0.51790    0.11800    0.97479    1.000
    H65      H        0.49300    0.09410    0.99920    1.000
    C79      C        0.56020    0.07290    0.94546    1.000
    H66      H        0.56550    0.02030    0.95130    1.000
    C80      C        0.59440    0.10680    0.90770    1.000
    C81      C        0.58640    0.18600    0.90172    1.000
    H67      H        0.60840    0.21100    0.87650    1.000
    C82      C        0.54580    0.22720    0.93346    1.000
    H68      H        0.54220    0.28040    0.92960    1.000
    C83      C        0.64090    0.05820    0.87710    1.000
    C84      C        0.69290    0.01150    0.89933    1.000
    H69      H        0.69680    0.01170    0.93230    1.000
    C85      C        0.73950    0.96430    0.87364    1.000
    C86      C        0.73280    0.96380    0.82426    1.000
    C87      C        0.63590    0.05800    0.82777    1.000
    C88      C        0.68070    0.01140    0.80097    1.000
    C89      C        0.51150    0.08370    0.80876    1.000
    H70      H        0.50060    0.07890    0.84190    1.000
    H71      H        0.48080    0.12240    0.79450    1.000
    H72      H        0.50320    0.03500    0.79320    1.000
    C90      C        0.84770    0.94490    0.79053    1.000
    H73      H        0.87180    0.95180    0.82080    1.000
    H74      H        0.87470    0.90880    0.77190    1.000
    H75      H        0.84500    0.99360    0.77430    1.000
    C91      C        0.79430    0.91820    0.90128    1.000
    C92      C        0.83640    0.95470    0.93649    1.000
    H76      H        0.83400    0.00800    0.94030    1.000
    C93      C        0.88140    0.91150    0.96537    1.000
    H77      H        0.90950    0.93690    0.98840    1.000
    C94      C        0.84820    0.79980    0.92749    1.000
    H78      H        0.85240    0.74650    0.92430    1.000
    C95      C        0.80240    0.83920    0.89616    1.000
    H79      H        0.77750    0.81290    0.87210    1.000
    C96      C        0.67710    0.01020    0.74813    1.000
    C97      C        0.71990    0.06010    0.72193    1.000
    C98      C        0.72330    0.05480    0.67242    1.000
    C99      C        0.67990    0.99940    0.64973    1.000
    H80      H        0.68160    0.99520    0.61680    1.000
    C100     C        0.63420    0.95020    0.67450    1.000
    C101     C        0.63400    0.95550    0.72383    1.000
    C102     C        0.61260    0.83090    0.75511    1.000
    H81      H        0.65750    0.82940    0.77310    1.000
    H82      H        0.57630    0.80160    0.77130    1.000
    H83      H        0.62000    0.80900    0.72420    1.000
    C103     C        0.72810    0.19040    0.74640    1.000
    H84      H        0.68050    0.18710    0.75970    1.000
    H85      H        0.75770    0.22510    0.76510    1.000
    H86      H        0.72420    0.20930    0.71440    1.000
    C104     C        0.77250    0.10220    0.64277    1.000
    C105     C        0.84420    0.12040    0.65663    1.000
    H87      H        0.86170    0.10780    0.68690    1.000
    C106     C        0.88830    0.15730    0.62465    1.000
    H88      H        0.93610    0.16800    0.63410    1.000
    C107     C        0.79720    0.16410    0.56825    1.000
    H89      H        0.78020    0.18060    0.53860    1.000
    C108     C        0.74970    0.12570    0.59741    1.000
    H90      H        0.70240    0.11540    0.58680    1.000
    Cd4      Cd       0.94030    0.76239    0.02442    1.000
    Cl7      Cl       0.04095    0.87301    0.03146    1.000
    Cl8      Cl       0.84791    0.64990    0.01819    1.000
    O13      O        0.08714    0.60575    0.80385    1.000
    O14      O        0.27485    0.41552    0.79757    1.000
    O15      O        0.26135    0.61453    0.74634    1.000
    O16      O        0.08901    0.40901    0.75017    1.000
    N13      N        0.01130    0.69440    0.96946    1.000
    N14      N        0.38700    0.33490    0.96217    1.000
    N15      N        0.36670    0.67880    0.58055    1.000
    N16      N        0.00631    0.30190    0.58476    1.000
    C109     C        0.97590    0.34000    0.61997    1.000
    H91      H        0.92590    0.33570    0.62350    1.000
    C110     C        0.01440    0.38590    0.65176    1.000
    H92      H        0.99060    0.41010    0.67660    1.000
    C111     C        0.08980    0.39550    0.64626    1.000
    C112     C        0.07880    0.30810    0.58047    1.000
    H93      H        0.10130    0.27980    0.55680    1.000
    C113     C        0.12110    0.35400    0.60923    1.000
    H94      H        0.17090    0.35760    0.60420    1.000
    C114     C        0.01790    0.61800    0.97479    1.000
    H95      H        0.99300    0.59410    0.99920    1.000
    C115     C        0.06020    0.57290    0.94546    1.000
    H96      H        0.06550    0.52030    0.95130    1.000
    C116     C        0.09440    0.60680    0.90770    1.000
    C117     C        0.08640    0.68600    0.90172    1.000
    H97      H        0.10840    0.71100    0.87650    1.000
    C118     C        0.04580    0.72720    0.93346    1.000
    H98      H        0.04220    0.78040    0.92960    1.000
    C119     C        0.14090    0.55820    0.87710    1.000
    C120     C        0.19290    0.51150    0.89933    1.000
    H99      H        0.19680    0.51170    0.93230    1.000
    C121     C        0.23950    0.46430    0.87364    1.000
    C122     C        0.23280    0.46380    0.82426    1.000
    C123     C        0.13590    0.55800    0.82777    1.000
    C124     C        0.18070    0.51140    0.80097    1.000
    C125     C        0.01150    0.58370    0.80876    1.000
    H100     H        0.00060    0.57890    0.84190    1.000
    H101     H        0.98080    0.62240    0.79450    1.000
    H102     H        0.00320    0.53500    0.79320    1.000
    C126     C        0.34770    0.44490    0.79053    1.000
    H103     H        0.37180    0.45180    0.82080    1.000
    H104     H        0.37470    0.40880    0.77190    1.000
    H105     H        0.34500    0.49360    0.77430    1.000
    C127     C        0.29430    0.41820    0.90128    1.000
    C128     C        0.33640    0.45470    0.93649    1.000
    H106     H        0.33400    0.50800    0.94030    1.000
    C129     C        0.38140    0.41150    0.96537    1.000
    H107     H        0.40950    0.43690    0.98840    1.000
    C130     C        0.34820    0.29980    0.92749    1.000
    H108     H        0.35240    0.24650    0.92430    1.000
    C131     C        0.30240    0.33920    0.89616    1.000
    H109     H        0.27750    0.31290    0.87210    1.000
    C132     C        0.17710    0.51020    0.74813    1.000
    C133     C        0.21990    0.56010    0.72193    1.000
    C134     C        0.22330    0.55480    0.67242    1.000
    C135     C        0.17990    0.49940    0.64973    1.000
    H110     H        0.18160    0.49520    0.61680    1.000
    C136     C        0.13420    0.45020    0.67450    1.000
    C137     C        0.13400    0.45550    0.72383    1.000
    C138     C        0.11260    0.33090    0.75511    1.000
    H111     H        0.15750    0.32940    0.77310    1.000
    H112     H        0.07630    0.30160    0.77130    1.000
    H113     H        0.12000    0.30900    0.72420    1.000
    C139     C        0.22810    0.69040    0.74640    1.000
    H114     H        0.18050    0.68710    0.75970    1.000
    H115     H        0.25770    0.72510    0.76510    1.000
    H116     H        0.22420    0.70930    0.71440    1.000
    C140     C        0.27250    0.60220    0.64277    1.000
    C141     C        0.34420    0.62040    0.65663    1.000
    H117     H        0.36170    0.60780    0.68690    1.000
    C142     C        0.38830    0.65730    0.62465    1.000
    H118     H        0.43610    0.66800    0.63410    1.000
    C143     C        0.29720    0.66410    0.56825    1.000
    H119     H        0.28020    0.68060    0.53860    1.000
    C144     C        0.24970    0.62570    0.59741    1.000
    H120     H        0.20240    0.61540    0.58680    1.000
    Cd5      Cd       0.55970    0.73761    0.97558    1.000
    Cl9      Cl       0.45905    0.62699    0.96854    1.000
    Cl10     Cl       0.65209    0.85010    0.98181    1.000
    O17      O        0.41286    0.89425    0.19615    1.000
    O18      O        0.22515    0.08448    0.20243    1.000
    O19      O        0.23865    0.88547    0.25366    1.000
    O20      O        0.41099    0.09099    0.24983    1.000
    N17      N        0.48870    0.80560    0.03054    1.000
    N18      N        0.11300    0.16510    0.03783    1.000
    N19      N        0.13330    0.82120    0.41945    1.000
    N20      N        0.49369    0.19810    0.41524    1.000
    C145     C        0.52410    0.16000    0.38003    1.000
    H121     H        0.57410    0.16430    0.37650    1.000
    C146     C        0.48560    0.11410    0.34824    1.000
    H122     H        0.50940    0.08990    0.32340    1.000
    C147     C        0.41020    0.10450    0.35374    1.000
    C148     C        0.42120    0.19190    0.41953    1.000
    H123     H        0.39870    0.22020    0.44320    1.000
    C149     C        0.37890    0.14600    0.39077    1.000
    H124     H        0.32910    0.14240    0.39580    1.000
    C150     C        0.48210    0.88200    0.02521    1.000
    H125     H        0.50700    0.90590    0.00080    1.000
    C151     C        0.43980    0.92710    0.05454    1.000
    H126     H        0.43450    0.97970    0.04870    1.000
    C152     C        0.40560    0.89320    0.09230    1.000
    C153     C        0.41360    0.81400    0.09828    1.000
    H127     H        0.39160    0.78900    0.12350    1.000
    C154     C        0.45420    0.77280    0.06654    1.000
    H128     H        0.45780    0.71960    0.07040    1.000
    C155     C        0.35910    0.94180    0.12290    1.000
    C156     C        0.30710    0.98850    0.10067    1.000
    H129     H        0.30320    0.98830    0.06770    1.000
    C157     C        0.26050    0.03570    0.12636    1.000
    C158     C        0.26720    0.03620    0.17574    1.000
    C159     C        0.36410    0.94200    0.17223    1.000
    C160     C        0.31930    0.98860    0.19903    1.000
    C161     C        0.48850    0.91630    0.19124    1.000
    H130     H        0.49940    0.92110    0.15810    1.000
    H131     H        0.51920    0.87760    0.20550    1.000
    H132     H        0.49680    0.96500    0.20680    1.000
    C162     C        0.15230    0.05510    0.20947    1.000
    H133     H        0.12820    0.04820    0.17920    1.000
    H134     H        0.12530    0.09120    0.22810    1.000
    H135     H        0.15500    0.00640    0.22570    1.000
    C163     C        0.20570    0.08180    0.09872    1.000
    C164     C        0.16360    0.04530    0.06351    1.000
    H136     H        0.16600    0.99200    0.05970    1.000
    C165     C        0.11860    0.08850    0.03463    1.000
    H137     H        0.09050    0.06310    0.01160    1.000
    C166     C        0.15180    0.20020    0.07251    1.000
    H138     H        0.14760    0.25350    0.07570    1.000
    C167     C        0.19760    0.16080    0.10384    1.000
    H139     H        0.22250    0.18710    0.12790    1.000
    C168     C        0.32290    0.98980    0.25187    1.000
    C169     C        0.28010    0.93990    0.27807    1.000
    C170     C        0.27670    0.94520    0.32758    1.000
    C171     C        0.32010    0.00060    0.35027    1.000
    H140     H        0.31840    0.00480    0.38320    1.000
    C172     C        0.36580    0.04980    0.32550    1.000
    C173     C        0.36600    0.04450    0.27617    1.000
    C174     C        0.38740    0.16910    0.24489    1.000
    H141     H        0.34250    0.17060    0.22690    1.000
    H142     H        0.42370    0.19840    0.22870    1.000
    H143     H        0.38000    0.19100    0.27580    1.000
    C175     C        0.27190    0.80960    0.25360    1.000
    H144     H        0.31950    0.81290    0.24030    1.000
    H145     H        0.24230    0.77490    0.23490    1.000
    H146     H        0.27580    0.79070    0.28560    1.000
    C176     C        0.22750    0.89780    0.35723    1.000
    C177     C        0.15580    0.87960    0.34337    1.000
    H147     H        0.13830    0.89220    0.31310    1.000
    C178     C        0.11170    0.84270    0.37535    1.000
    H148     H        0.06390    0.83200    0.36590    1.000
    C179     C        0.20280    0.83590    0.43175    1.000
    H149     H        0.21980    0.81940    0.46140    1.000
    C180     C        0.25030    0.87430    0.40259    1.000
    H150     H        0.29760    0.88460    0.41320    1.000
    Cd6      Cd       0.05970    0.23761    0.97558    1.000
    Cl11     Cl       0.95905    0.12699    0.96854    1.000
    Cl12     Cl       0.15209    0.35010    0.98181    1.000
    O21      O        0.91286    0.39425    0.19615    1.000
    O22      O        0.72515    0.58448    0.20243    1.000
    O23      O        0.73865    0.38547    0.25366    1.000
    O24      O        0.91099    0.59099    0.24983    1.000
    N21      N        0.98870    0.30560    0.03054    1.000
    N22      N        0.61300    0.66510    0.03783    1.000
    N23      N        0.63330    0.32120    0.41945    1.000
    N24      N        0.99369    0.69810    0.41524    1.000
    C181     C        0.02410    0.66000    0.38003    1.000
    H151     H        0.07410    0.66430    0.37650    1.000
    C182     C        0.98560    0.61410    0.34824    1.000
    H152     H        0.00940    0.58990    0.32340    1.000
    C183     C        0.91020    0.60450    0.35374    1.000
    C184     C        0.92120    0.69190    0.41953    1.000
    H153     H        0.89870    0.72020    0.44320    1.000
    C185     C        0.87890    0.64600    0.39077    1.000
    H154     H        0.82910    0.64240    0.39580    1.000
    C186     C        0.98210    0.38200    0.02521    1.000
    H155     H        0.00700    0.40590    0.00080    1.000
    C187     C        0.93980    0.42710    0.05454    1.000
    H156     H        0.93450    0.47970    0.04870    1.000
    C188     C        0.90560    0.39320    0.09230    1.000
    C189     C        0.91360    0.31400    0.09828    1.000
    H157     H        0.89160    0.28900    0.12350    1.000
    C190     C        0.95420    0.27280    0.06654    1.000
    H158     H        0.95780    0.21960    0.07040    1.000
    C191     C        0.85910    0.44180    0.12290    1.000
    C192     C        0.80710    0.48850    0.10067    1.000
    H159     H        0.80320    0.48830    0.06770    1.000
    C193     C        0.76050    0.53570    0.12636    1.000
    C194     C        0.76720    0.53620    0.17574    1.000
    C195     C        0.86410    0.44200    0.17223    1.000
    C196     C        0.81930    0.48860    0.19903    1.000
    C197     C        0.98850    0.41630    0.19124    1.000
    H160     H        0.99940    0.42110    0.15810    1.000
    H161     H        0.01920    0.37760    0.20550    1.000
    H162     H        0.99680    0.46500    0.20680    1.000
    C198     C        0.65230    0.55510    0.20947    1.000
    H163     H        0.62820    0.54820    0.17920    1.000
    H164     H        0.62530    0.59120    0.22810    1.000
    H165     H        0.65500    0.50640    0.22570    1.000
    C199     C        0.70570    0.58180    0.09872    1.000
    C200     C        0.66360    0.54530    0.06351    1.000
    H166     H        0.66600    0.49200    0.05970    1.000
    C201     C        0.61860    0.58850    0.03463    1.000
    H167     H        0.59050    0.56310    0.01160    1.000
    C202     C        0.65180    0.70020    0.07251    1.000
    H168     H        0.64760    0.75350    0.07570    1.000
    C203     C        0.69760    0.66080    0.10384    1.000
    H169     H        0.72250    0.68710    0.12790    1.000
    C204     C        0.82290    0.48980    0.25187    1.000
    C205     C        0.78010    0.43990    0.27807    1.000
    C206     C        0.77670    0.44520    0.32758    1.000
    C207     C        0.82010    0.50060    0.35027    1.000
    H170     H        0.81840    0.50480    0.38320    1.000
    C208     C        0.86580    0.54980    0.32550    1.000
    C209     C        0.86600    0.54450    0.27617    1.000
    C210     C        0.88740    0.66910    0.24489    1.000
    H171     H        0.84250    0.67060    0.22690    1.000
    H172     H        0.92370    0.69840    0.22870    1.000
    H173     H        0.88000    0.69100    0.27580    1.000
    C211     C        0.77190    0.30960    0.25360    1.000
    H174     H        0.81950    0.31290    0.24030    1.000
    H175     H        0.74230    0.27490    0.23490    1.000
    H176     H        0.77580    0.29070    0.28560    1.000
    C212     C        0.72750    0.39780    0.35723    1.000
    C213     C        0.65580    0.37960    0.34337    1.000
    H177     H        0.63830    0.39220    0.31310    1.000
    C214     C        0.61170    0.34270    0.37535    1.000
    H178     H        0.56390    0.33200    0.36590    1.000
    C215     C        0.70280    0.33590    0.43175    1.000
    H179     H        0.71980    0.31940    0.46140    1.000
    C216     C        0.75030    0.37430    0.40259    1.000
    H180     H        0.79760    0.38460    0.41320    1.000
    Cd7      Cd       0.55970    0.26239    0.47558    1.000
    Cl13     Cl       0.45905    0.37301    0.46854    1.000
    Cl14     Cl       0.65209    0.14990    0.48181    1.000
    O25      O        0.41286    0.10575    0.69615    1.000
    O26      O        0.22515    0.91552    0.70243    1.000
    O27      O        0.23865    0.11453    0.75366    1.000
    O28      O        0.41099    0.90901    0.74983    1.000
    N25      N        0.48870    0.19440    0.53054    1.000
    N26      N        0.11300    0.83490    0.53783    1.000
    N27      N        0.13330    0.17880    0.91945    1.000
    N28      N        0.49369    0.80190    0.91524    1.000
    C217     C        0.52410    0.84000    0.88003    1.000
    H181     H        0.57410    0.83570    0.87650    1.000
    C218     C        0.48560    0.88590    0.84824    1.000
    H182     H        0.50940    0.91010    0.82340    1.000
    C219     C        0.41020    0.89550    0.85374    1.000
    C220     C        0.42120    0.80810    0.91953    1.000
    H183     H        0.39870    0.77980    0.94320    1.000
    C221     C        0.37890    0.85400    0.89077    1.000
    H184     H        0.32910    0.85760    0.89580    1.000
    C222     C        0.48210    0.11800    0.52521    1.000
    H185     H        0.50700    0.09410    0.50080    1.000
    C223     C        0.43980    0.07290    0.55454    1.000
    H186     H        0.43450    0.02030    0.54870    1.000
    C224     C        0.40560    0.10680    0.59230    1.000
    C225     C        0.41360    0.18600    0.59828    1.000
    H187     H        0.39160    0.21100    0.62350    1.000
    C226     C        0.45420    0.22720    0.56654    1.000
    H188     H        0.45780    0.28040    0.57040    1.000
    C227     C        0.35910    0.05820    0.62290    1.000
    C228     C        0.30710    0.01150    0.60067    1.000
    H189     H        0.30320    0.01170    0.56770    1.000
    C229     C        0.26050    0.96430    0.62636    1.000
    C230     C        0.26720    0.96380    0.67574    1.000
    C231     C        0.36410    0.05800    0.67223    1.000
    C232     C        0.31930    0.01140    0.69903    1.000
    C233     C        0.48850    0.08370    0.69124    1.000
    H190     H        0.49940    0.07890    0.65810    1.000
    H191     H        0.51920    0.12240    0.70550    1.000
    H192     H        0.49680    0.03500    0.70680    1.000
    C234     C        0.15230    0.94490    0.70947    1.000
    H193     H        0.12820    0.95180    0.67920    1.000
    H194     H        0.12530    0.90880    0.72810    1.000
    H195     H        0.15500    0.99360    0.72570    1.000
    C235     C        0.20570    0.91820    0.59872    1.000
    C236     C        0.16360    0.95470    0.56351    1.000
    H196     H        0.16600    0.00800    0.55970    1.000
    C237     C        0.11860    0.91150    0.53463    1.000
    H197     H        0.09050    0.93690    0.51160    1.000
    C238     C        0.15180    0.79980    0.57251    1.000
    H198     H        0.14760    0.74650    0.57570    1.000
    C239     C        0.19760    0.83920    0.60384    1.000
    H199     H        0.22250    0.81290    0.62790    1.000
    C240     C        0.32290    0.01020    0.75187    1.000
    C241     C        0.28010    0.06010    0.77807    1.000
    C242     C        0.27670    0.05480    0.82758    1.000
    C243     C        0.32010    0.99940    0.85027    1.000
    H200     H        0.31840    0.99520    0.88320    1.000
    C244     C        0.36580    0.95020    0.82550    1.000
    C245     C        0.36600    0.95550    0.77617    1.000
    C246     C        0.38740    0.83090    0.74489    1.000
    H201     H        0.34250    0.82940    0.72690    1.000
    H202     H        0.42370    0.80160    0.72870    1.000
    H203     H        0.38000    0.80900    0.77580    1.000
    C247     C        0.27190    0.19040    0.75360    1.000
    H204     H        0.31950    0.18710    0.74030    1.000
    H205     H        0.24230    0.22510    0.73490    1.000
    H206     H        0.27580    0.20930    0.78560    1.000
    C248     C        0.22750    0.10220    0.85723    1.000
    C249     C        0.15580    0.12040    0.84337    1.000
    H207     H        0.13830    0.10780    0.81310    1.000
    C250     C        0.11170    0.15730    0.87535    1.000
    H208     H        0.06390    0.16800    0.86590    1.000
    C251     C        0.20280    0.16410    0.93175    1.000
    H209     H        0.21980    0.18060    0.96140    1.000
    C252     C        0.25030    0.12570    0.90259    1.000
    H210     H        0.29760    0.11540    0.91320    1.000
    Cd8      Cd       0.05970    0.76239    0.47558    1.000
    Cl15     Cl       0.95905    0.87301    0.46854    1.000
    Cl16     Cl       0.15209    0.64990    0.48181    1.000
    O29      O        0.91286    0.60575    0.69615    1.000
    O30      O        0.72515    0.41552    0.70243    1.000
    O31      O        0.73865    0.61453    0.75366    1.000
    O32      O        0.91099    0.40901    0.74983    1.000
    N29      N        0.98870    0.69440    0.53054    1.000
    N30      N        0.61300    0.33490    0.53783    1.000
    N31      N        0.63330    0.67880    0.91945    1.000
    N32      N        0.99369    0.30190    0.91524    1.000
    C253     C        0.02410    0.34000    0.88003    1.000
    H211     H        0.07410    0.33570    0.87650    1.000
    C254     C        0.98560    0.38590    0.84824    1.000
    H212     H        0.00940    0.41010    0.82340    1.000
    C255     C        0.91020    0.39550    0.85374    1.000
    C256     C        0.92120    0.30810    0.91953    1.000
    H213     H        0.89870    0.27980    0.94320    1.000
    C257     C        0.87890    0.35400    0.89077    1.000
    H214     H        0.82910    0.35760    0.89580    1.000
    C258     C        0.98210    0.61800    0.52521    1.000
    H215     H        0.00700    0.59410    0.50080    1.000
    C259     C        0.93980    0.57290    0.55454    1.000
    H216     H        0.93450    0.52030    0.54870    1.000
    C260     C        0.90560    0.60680    0.59230    1.000
    C261     C        0.91360    0.68600    0.59828    1.000
    H217     H        0.89160    0.71100    0.62350    1.000
    C262     C        0.95420    0.72720    0.56654    1.000
    H218     H        0.95780    0.78040    0.57040    1.000
    C263     C        0.85910    0.55820    0.62290    1.000
    C264     C        0.80710    0.51150    0.60067    1.000
    H219     H        0.80320    0.51170    0.56770    1.000
    C265     C        0.76050    0.46430    0.62636    1.000
    C266     C        0.76720    0.46380    0.67574    1.000
    C267     C        0.86410    0.55800    0.67223    1.000
    C268     C        0.81930    0.51140    0.69903    1.000
    C269     C        0.98850    0.58370    0.69124    1.000
    H220     H        0.99940    0.57890    0.65810    1.000
    H221     H        0.01920    0.62240    0.70550    1.000
    H222     H        0.99680    0.53500    0.70680    1.000
    C270     C        0.65230    0.44490    0.70947    1.000
    H223     H        0.62820    0.45180    0.67920    1.000
    H224     H        0.62530    0.40880    0.72810    1.000
    H225     H        0.65500    0.49360    0.72570    1.000
    C271     C        0.70570    0.41820    0.59872    1.000
    C272     C        0.66360    0.45470    0.56351    1.000
    H226     H        0.66600    0.50800    0.55970    1.000
    C273     C        0.61860    0.41150    0.53463    1.000
    H227     H        0.59050    0.43690    0.51160    1.000
    C274     C        0.65180    0.29980    0.57251    1.000
    H228     H        0.64760    0.24650    0.57570    1.000
    C275     C        0.69760    0.33920    0.60384    1.000
    H229     H        0.72250    0.31290    0.62790    1.000
    C276     C        0.82290    0.51020    0.75187    1.000
    C277     C        0.78010    0.56010    0.77807    1.000
    C278     C        0.77670    0.55480    0.82758    1.000
    C279     C        0.82010    0.49940    0.85027    1.000
    H230     H        0.81840    0.49520    0.88320    1.000
    C280     C        0.86580    0.45020    0.82550    1.000
    C281     C        0.86600    0.45550    0.77617    1.000
    C282     C        0.88740    0.33090    0.74489    1.000
    H231     H        0.84250    0.32940    0.72690    1.000
    H232     H        0.92370    0.30160    0.72870    1.000
    H233     H        0.88000    0.30900    0.77580    1.000
    C283     C        0.77190    0.69040    0.75360    1.000
    H234     H        0.81950    0.68710    0.74030    1.000
    H235     H        0.74230    0.72510    0.73490    1.000
    H236     H        0.77580    0.70930    0.78560    1.000
    C284     C        0.72750    0.60220    0.85723    1.000
    C285     C        0.65580    0.62040    0.84337    1.000
    H237     H        0.63830    0.60780    0.81310    1.000
    C286     C        0.61170    0.65730    0.87535    1.000
    H238     H        0.56390    0.66800    0.86590    1.000
    C287     C        0.70280    0.66410    0.93175    1.000
    H239     H        0.71980    0.68060    0.96140    1.000
    C288     C        0.75030    0.62570    0.90259    1.000
    H240     H        0.79760    0.61540    0.91320    1.000
