# CIF file generated by openbabel 3.1.0, see https://openbabel.org
data_I
_chemical_name_common 'RAXDAX_clean'
_cell_length_a 9.267
_cell_length_b 13.257
_cell_length_c 16.324
_cell_angle_alpha 90
_cell_angle_beta 94.975
_cell_angle_gamma 90
_space_group_name_H-M_alt 'P 1'
_space_group_name_Hall 'P 1'
loop_
    _symmetry_equiv_pos_as_xyz
    x,y,z
loop_
    _atom_site_label
    _atom_site_type_symbol
    _atom_site_fract_x
    _atom_site_fract_y
    _atom_site_fract_z
    _atom_site_occupancy
    Zn1      Zn       0.73090    0.15523    0.81676    1.000
    Zn2      Zn       0.76910    0.65523    0.68324    1.000
    Zn3      Zn       0.26910    0.84477    0.18324    1.000
    Zn4      Zn       0.23090    0.34477    0.31676    1.000
    H1       H        0.99840    0.19740    0.04410    1.000
    H2       H        0.25400    0.02550    0.91850    1.000
    H3       H        0.40080    0.13460    0.13980    1.000
    H4       H        0.28420    0.32400    0.90410    1.000
    H5       H        0.68130    0.24720    0.98750    1.000
    H6       H        0.38780    0.22270    0.80740    1.000
    H7       H        0.35980    0.37610    0.04800    1.000
    H8       H        0.50440    0.33310    0.09150    1.000
    H9       H        0.63630    0.46080    0.02690    1.000
    H10      H        0.52870    0.50770    0.08540    1.000
    H11      H        0.77800    0.89120    0.60750    1.000
    H12      H        0.49300    0.82990    0.58600    1.000
    H13      H        0.38740    0.91900    0.60180    1.000
    H14      H        0.47770    0.02410    0.72520    1.000
    H15      H        0.88880    0.98990    0.71900    1.000
    H16      H        0.43110    0.91600    0.46370    1.000
    H17      H        0.59810    0.92350    0.48710    1.000
    H18      H        0.50160    0.69740    0.45590    1.000
    H19      H        0.24600    0.52550    0.58150    1.000
    H20      H        0.09920    0.63460    0.36020    1.000
    H21      H        0.21580    0.82400    0.59590    1.000
    H22      H        0.81870    0.74720    0.51250    1.000
    H23      H        0.11220    0.72270    0.69260    1.000
    H24      H        0.14020    0.87610    0.45200    1.000
    H25      H        0.99560    0.83310    0.40850    1.000
    H26      H        0.86370    0.96080    0.47310    1.000
    H27      H        0.97130    0.00770    0.41460    1.000
    H28      H        0.72200    0.39120    0.89250    1.000
    H29      H        0.00700    0.32990    0.91400    1.000
    H30      H        0.11260    0.41900    0.89820    1.000
    H31      H        0.02230    0.52410    0.77480    1.000
    H32      H        0.61120    0.48990    0.78100    1.000
    H33      H        0.06890    0.41600    0.03630    1.000
    H34      H        0.90190    0.42350    0.01290    1.000
    H35      H        0.00160    0.80260    0.95590    1.000
    H36      H        0.74600    0.97450    0.08150    1.000
    H37      H        0.59920    0.86540    0.86020    1.000
    H38      H        0.71580    0.67600    0.09590    1.000
    H39      H        0.31870    0.75280    0.01250    1.000
    H40      H        0.61220    0.77730    0.19260    1.000
    H41      H        0.64020    0.62390    0.95200    1.000
    H42      H        0.49560    0.66690    0.90850    1.000
    H43      H        0.36370    0.53920    0.97310    1.000
    H44      H        0.47130    0.49230    0.91460    1.000
    H45      H        0.22200    0.10880    0.39250    1.000
    H46      H        0.50700    0.17010    0.41400    1.000
    H47      H        0.61260    0.08100    0.39820    1.000
    H48      H        0.52230    0.97590    0.27480    1.000
    H49      H        0.11120    0.01010    0.28100    1.000
    H50      H        0.56890    0.08400    0.53630    1.000
    H51      H        0.40190    0.07650    0.51290    1.000
    H52      H        0.49840    0.30260    0.54410    1.000
    H53      H        0.75400    0.47450    0.41850    1.000
    H54      H        0.90080    0.36540    0.63980    1.000
    H55      H        0.78420    0.17600    0.40410    1.000
    H56      H        0.18130    0.25280    0.48750    1.000
    H57      H        0.88780    0.27730    0.30740    1.000
    H58      H        0.85980    0.12390    0.54800    1.000
    H59      H        0.00440    0.16690    0.59150    1.000
    H60      H        0.13630    0.03920    0.52690    1.000
    H61      H        0.02870    0.99230    0.58540    1.000
    H62      H        0.27800    0.60880    0.10750    1.000
    H63      H        0.99300    0.67010    0.08600    1.000
    H64      H        0.88740    0.58100    0.10180    1.000
    H65      H        0.97770    0.47590    0.22520    1.000
    H66      H        0.38880    0.51010    0.21900    1.000
    H67      H        0.93110    0.58400    0.96370    1.000
    H68      H        0.09810    0.57650    0.98710    1.000
    C1       C        0.08750    0.16640    0.03990    1.000
    C2       C        0.11060    0.11120    0.97030    1.000
    C3       C        0.17390    0.23730    0.17730    1.000
    C4       C        0.99760    0.10710    0.89900    1.000
    C5       C        0.19600    0.17580    0.10350    1.000
    C6       C        0.23920    0.06360    0.96490    1.000
    C7       C        0.32730    0.12840    0.09760    1.000
    C8       C        0.34920    0.07150    0.02860    1.000
    C9       C        0.37650    0.29590    0.90860    1.000
    C10      C        0.59580    0.25270    0.95350    1.000
    C11      C        0.43560    0.24100    0.85760    1.000
    C12      C        0.46230    0.36680    0.04240    1.000
    C13      C        0.53470    0.47040    0.03470    1.000
    C14      C        0.73140    0.92990    0.64480    1.000
    C15      C        0.48390    0.90270    0.58710    1.000
    C16      C        0.56810    0.00340    0.71080    1.000
    C17      C        0.78930    0.98400    0.70670    1.000
    C18      C        0.50430    0.94480    0.50290    1.000
    C19      C        0.41250    0.66640    0.46010    1.000
    C20      C        0.38940    0.61120    0.52970    1.000
    C21      C        0.32610    0.73730    0.32270    1.000
    C22      C        0.50240    0.60710    0.60100    1.000
    C23      C        0.30400    0.67580    0.39650    1.000
    C24      C        0.26080    0.56360    0.53510    1.000
    C25      C        0.17270    0.62840    0.40240    1.000
    C26      C        0.15080    0.57150    0.47140    1.000
    C27      C        0.12350    0.79590    0.59140    1.000
    C28      C        0.90420    0.75270    0.54650    1.000
    C29      C        0.06440    0.74100    0.64240    1.000
    C30      C        0.03770    0.86680    0.45760    1.000
    C31      C        0.96530    0.97040    0.46530    1.000
    C32      C        0.76860    0.42990    0.85520    1.000
    C33      C        0.01610    0.40270    0.91290    1.000
    C34      C        0.93190    0.50340    0.78920    1.000
    C35      C        0.71070    0.48400    0.79330    1.000
    C36      C        0.99570    0.44480    0.99710    1.000
    C37      C        0.91250    0.83360    0.96010    1.000
    C38      C        0.88940    0.88880    0.02970    1.000
    C39      C        0.82610    0.76270    0.82270    1.000
    C40      C        0.00240    0.89290    0.10100    1.000
    C41      C        0.80400    0.82420    0.89650    1.000
    C42      C        0.76080    0.93640    0.03510    1.000
    C43      C        0.67270    0.87160    0.90240    1.000
    C44      C        0.65080    0.92850    0.97140    1.000
    C45      C        0.62350    0.70410    0.09140    1.000
    C46      C        0.40420    0.74730    0.04650    1.000
    C47      C        0.56440    0.75900    0.14240    1.000
    C48      C        0.53770    0.63320    0.95760    1.000
    C49      C        0.46530    0.52960    0.96530    1.000
    C50      C        0.26860    0.07010    0.35520    1.000
    C51      C        0.51610    0.09730    0.41290    1.000
    C52      C        0.43190    0.99660    0.28920    1.000
    C53      C        0.21070    0.01600    0.29330    1.000
    C54      C        0.49570    0.05520    0.49710    1.000
    C55      C        0.58750    0.33360    0.53990    1.000
    C56      C        0.61060    0.38880    0.47030    1.000
    C57      C        0.67390    0.26270    0.67730    1.000
    C58      C        0.49760    0.39290    0.39900    1.000
    C59      C        0.69600    0.32420    0.60350    1.000
    C60      C        0.73920    0.43640    0.46490    1.000
    C61      C        0.82730    0.37160    0.59760    1.000
    C62      C        0.84920    0.42850    0.52860    1.000
    C63      C        0.87650    0.20410    0.40860    1.000
    C64      C        0.09580    0.24730    0.45350    1.000
    C65      C        0.93560    0.25900    0.35760    1.000
    C66      C        0.96230    0.13320    0.54240    1.000
    C67      C        0.03470    0.02960    0.53470    1.000
    C68      C        0.23140    0.57010    0.14480    1.000
    C69      C        0.98390    0.59730    0.08710    1.000
    C70      C        0.06810    0.49660    0.21080    1.000
    C71      C        0.28930    0.51600    0.20670    1.000
    C72      C        0.00430    0.55520    0.00290    1.000
    N1       N        0.48050    0.30340    0.97090    1.000
    N2       N        0.57140    0.21080    0.88030    1.000
    N3       N        0.48840    0.02550    0.03050    1.000
    N4       N        0.69370    0.02940    0.74990    1.000
    N5       N        0.59050    0.94390    0.64840    1.000
    N6       N        0.01950    0.80340    0.52910    1.000
    N7       N        0.92860    0.71080    0.61970    1.000
    N8       N        0.01160    0.52550    0.46950    1.000
    N9       N        0.80630    0.52940    0.75010    1.000
    N10      N        0.90950    0.44390    0.85160    1.000
    N11      N        0.51950    0.69660    0.02910    1.000
    N12      N        0.42860    0.78920    0.11970    1.000
    N13      N        0.51160    0.97450    0.96950    1.000
    N14      N        0.30630    0.97060    0.25010    1.000
    N15      N        0.40950    0.05610    0.35160    1.000
    N16      N        0.98050    0.19660    0.47090    1.000
    N17      N        0.07140    0.28920    0.38030    1.000
    N18      N        0.98840    0.47450    0.53050    1.000
    N19      N        0.19370    0.47060    0.24990    1.000
    N20      N        0.09050    0.55610    0.14840    1.000
    O1       O        0.87860    0.15250    0.90890    1.000
    O2       O        0.28250    0.25230    0.22840    1.000
    O3       O        0.05190    0.27280    0.18630    1.000
    O4       O        0.02200    0.06470    0.83620    1.000
    O5       O        0.62140    0.65250    0.59110    1.000
    O6       O        0.21750    0.75230    0.27160    1.000
    O7       O        0.44810    0.77280    0.31370    1.000
    O8       O        0.47800    0.56470    0.66380    1.000
    O9       O        0.12140    0.84750    0.09110    1.000
    O10      O        0.71750    0.74770    0.77160    1.000
    O11      O        0.94810    0.72720    0.81370    1.000
    O12      O        0.97800    0.93530    0.16380    1.000
    O13      O        0.37860    0.34750    0.40890    1.000
    O14      O        0.78250    0.24770    0.72840    1.000
    O15      O        0.55190    0.22720    0.68630    1.000
    O16      O        0.52200    0.43530    0.33620    1.000
