# CIF file generated by openbabel 3.1.0, see https://openbabel.org
data_I
_chemical_name_common 'PIJROR_clean'
_cell_length_a 8.172
_cell_length_b 14.1969
_cell_length_c 14.1969
_cell_angle_alpha 110.241
_cell_angle_beta 91.0476
_cell_angle_gamma 88.9524
_space_group_name_H-M_alt 'P 1'
_space_group_name_Hall 'P 1'
loop_
    _symmetry_equiv_pos_as_xyz
    x,y,z
loop_
    _atom_site_label
    _atom_site_type_symbol
    _atom_site_fract_x
    _atom_site_fract_y
    _atom_site_fract_z
    _atom_site_occupancy
    Ce1      Ce       0.39888    0.91447    0.05243    1.000
    Ce2      Ce       0.89888    0.94757    0.08553    1.000
    H1       H        0.90260    0.29930    0.86690    1.000
    H2       H        0.97250    0.10490    0.58530    1.000
    H3       H        0.12290    0.39140    0.66040    1.000
    H4       H        0.94070    0.65000    0.04720    1.000
    H5       H        0.87450    0.47180    0.96200    1.000
    H6       H        0.61780    0.91220    0.70020    1.000
    H7       H        0.77020    0.00850    0.61670    1.000
    H8       H        0.35080    0.26600    0.34120    1.000
    H9       H        0.27070    0.34410    0.51750    1.000
    H10      H        0.40260    0.13310    0.70070    1.000
    H11      H        0.47250    0.41470    0.89510    1.000
    H12      H        0.62290    0.33960    0.60860    1.000
    H13      H        0.44070    0.95280    0.35000    1.000
    H14      H        0.37450    0.03800    0.52820    1.000
    H15      H        0.11780    0.29980    0.08780    1.000
    H16      H        0.27020    0.38330    0.99150    1.000
    H17      H        0.85080    0.65880    0.73400    1.000
    H18      H        0.77070    0.48250    0.65590    1.000
    C1       C        0.01740    0.36180    0.77620    1.000
    C2       C        0.94120    0.28570    0.80070    1.000
    C3       C        0.92120    0.18990    0.72870    1.000
    C4       C        0.98240    0.17060    0.63340    1.000
    C5       C        0.05780    0.24380    0.60580    1.000
    C6       C        0.07330    0.34000    0.67820    1.000
    C7       C        0.03360    0.46420    0.85120    1.000
    C8       C        0.10170    0.64130    0.93570    1.000
    C9       C        0.98870    0.60880    0.98600    1.000
    C10      C        0.95070    0.50690    0.93710    1.000
    C11      C        0.17360    0.74450    0.96390    1.000
    C12      C        0.83480    0.11270    0.75430    1.000
    C13      C        0.68690    0.01310    0.83950    1.000
    C14      C        0.67640    0.97150    0.73530    1.000
    C15      C        0.76260    0.02750    0.68750    1.000
    C16      C        0.60980    0.97760    0.91200    1.000
    C17      C        0.12710    0.22290    0.50450    1.000
    C18      C        0.20470    0.14580    0.32840    1.000
    C19      C        0.27770    0.23650    0.37390    1.000
    C20      C        0.23240    0.28080    0.47460    1.000
    C21      C        0.24110    0.07490    0.22630    1.000
    C22      C        0.51740    0.22380    0.63820    1.000
    C23      C        0.44120    0.19930    0.71430    1.000
    C24      C        0.42120    0.27130    0.81010    1.000
    C25      C        0.48240    0.36660    0.82940    1.000
    C26      C        0.55780    0.39420    0.75620    1.000
    C27      C        0.57330    0.32180    0.66000    1.000
    C28      C        0.53360    0.14880    0.53580    1.000
    C29      C        0.60170    0.06430    0.35870    1.000
    C30      C        0.48870    0.01400    0.39120    1.000
    C31      C        0.45070    0.06290    0.49310    1.000
    C32      C        0.67360    0.03610    0.25550    1.000
    C33      C        0.33480    0.24570    0.88730    1.000
    C34      C        0.18690    0.16050    0.98690    1.000
    C35      C        0.17640    0.26470    0.02850    1.000
    C36      C        0.26260    0.31250    0.97250    1.000
    C37      C        0.10980    0.08800    0.02240    1.000
    C38      C        0.62710    0.49550    0.77710    1.000
    C39      C        0.70470    0.67160    0.85420    1.000
    C40      C        0.77770    0.62610    0.76350    1.000
    C41      C        0.73240    0.52540    0.71920    1.000
    C42      C        0.74110    0.77370    0.92510    1.000
    S1       S        0.16620    0.54799    0.82973    1.000
    S2       S        0.80310    0.12046    0.87600    1.000
    S3       S        0.08030    0.11470    0.40704    1.000
    S4       S        0.66620    0.17027    0.45201    1.000
    S5       S        0.30310    0.12400    0.87954    1.000
    S6       S        0.58030    0.59296    0.88530    1.000
    O1       O        0.11040    0.81460    0.03640    1.000
    O2       O        0.29580    0.75860    0.91820    1.000
    O3       O        0.49540    0.91580    0.88480    1.000
    O4       O        0.65820    0.01170    0.00530    1.000
    O5       O        0.34940    0.09480    0.17400    1.000
    O6       O        0.16390    0.99090    0.19270    1.000
    O7       O        0.61040    0.96360    0.18540    1.000
    O8       O        0.79580    0.08180    0.24140    1.000
    O9       O        0.99540    0.11520    0.08420    1.000
    O10      O        0.15820    0.99470    0.98830    1.000
    O11      O        0.84940    0.82600    0.90520    1.000
    O12      O        0.66390    0.80730    0.00910    1.000
