# CIF file generated by openbabel 3.1.0, see https://openbabel.org
data_I
_chemical_name_common 'ODAJAG_clean'
_cell_length_a 6.1092
_cell_length_b 7.6866
_cell_length_c 22.6987
_cell_angle_alpha 90
_cell_angle_beta 91.657
_cell_angle_gamma 90
_space_group_name_H-M_alt 'P 1'
_space_group_name_Hall 'P 1'
loop_
    _symmetry_equiv_pos_as_xyz
    x,y,z
loop_
    _atom_site_label
    _atom_site_type_symbol
    _atom_site_fract_x
    _atom_site_fract_y
    _atom_site_fract_z
    _atom_site_occupancy
    Nd1      Nd       0.45527    0.50320    0.85402    1.000
    Nd2      Nd       0.54473    0.00320    0.64598    1.000
    Nd3      Nd       0.54473    0.49680    0.14598    1.000
    Nd4      Nd       0.45527    0.99680    0.35402    1.000
    H1       H        0.30200    0.72300    0.76100    1.000
    H2       H        0.42300    0.63300    0.61200    1.000
    H3       H        0.04310    0.47840    0.71750    1.000
    H4       H        0.12250    0.56910    0.62440    1.000
    H5       H        0.69800    0.22300    0.73900    1.000
    H6       H        0.57700    0.13300    0.88800    1.000
    H7       H        0.95690    0.97840    0.78250    1.000
    H8       H        0.87750    0.06910    0.87560    1.000
    H9       H        0.69800    0.27700    0.23900    1.000
    H10      H        0.57700    0.36700    0.38800    1.000
    H11      H        0.95690    0.52160    0.28250    1.000
    H12      H        0.87750    0.43090    0.37560    1.000
    H13      H        0.30200    0.77700    0.26100    1.000
    H14      H        0.42300    0.86700    0.11200    1.000
    H15      H        0.04310    0.02160    0.21750    1.000
    H16      H        0.12250    0.93090    0.12440    1.000
    C1       C        0.36630    0.39480    0.71110    1.000
    C2       C        0.18490    0.53710    0.71470    1.000
    C3       C        0.18380    0.64230    0.65620    1.000
    C4       C        0.04670    0.81150    0.65950    1.000
    C5       C        0.58370    0.57590    0.99880    1.000
    C6       C        0.63370    0.89480    0.78890    1.000
    C7       C        0.81510    0.03710    0.78530    1.000
    C8       C        0.81620    0.14230    0.84380    1.000
    C9       C        0.95330    0.31150    0.84050    1.000
    C10      C        0.41630    0.07590    0.50120    1.000
    C11      C        0.63370    0.60520    0.28890    1.000
    C12      C        0.81510    0.46290    0.28530    1.000
    C13      C        0.81620    0.35770    0.34380    1.000
    C14      C        0.95330    0.18850    0.34050    1.000
    C15      C        0.41630    0.42410    0.00120    1.000
    C16      C        0.36630    0.10520    0.21110    1.000
    C17      C        0.18490    0.96290    0.21470    1.000
    C18      C        0.18380    0.85770    0.15620    1.000
    C19      C        0.04670    0.68850    0.15950    1.000
    C20      C        0.58370    0.92410    0.49880    1.000
    O1       O        0.51510    0.40110    0.75160    1.000
    O2       O        0.35790    0.28580    0.67040    1.000
    O3       O        0.21890    0.64080    0.76680    1.000
    O4       O        0.40500    0.69140    0.64170    1.000
    O5       O        0.14880    0.95320    0.65390    1.000
    O6       O        0.84530    0.79560    0.66620    1.000
    O7       O        0.62340    0.63260    0.94720    1.000
    O8       O        0.66440    0.63110    0.04710    1.000
    O9       O        0.48490    0.90110    0.74840    1.000
    O10      O        0.64210    0.78580    0.82960    1.000
    O11      O        0.78110    0.14080    0.73320    1.000
    O12      O        0.59500    0.19140    0.85830    1.000
    O13      O        0.85120    0.45320    0.84610    1.000
    O14      O        0.15470    0.29560    0.83380    1.000
    O15      O        0.37660    0.13260    0.55280    1.000
    O16      O        0.33560    0.13110    0.45290    1.000
    O17      O        0.48490    0.59890    0.24840    1.000
    O18      O        0.64210    0.71420    0.32960    1.000
    O19      O        0.78110    0.35920    0.23320    1.000
    O20      O        0.59500    0.30860    0.35830    1.000
    O21      O        0.85120    0.04680    0.34610    1.000
    O22      O        0.15470    0.20440    0.33380    1.000
    O23      O        0.37660    0.36740    0.05280    1.000
    O24      O        0.33560    0.36890    0.95290    1.000
    O25      O        0.51510    0.09890    0.25160    1.000
    O26      O        0.35790    0.21420    0.17040    1.000
    O27      O        0.21890    0.85920    0.26680    1.000
    O28      O        0.40500    0.80860    0.14170    1.000
    O29      O        0.14880    0.54680    0.15390    1.000
    O30      O        0.84530    0.70440    0.16620    1.000
    O31      O        0.62340    0.86740    0.44720    1.000
    O32      O        0.66440    0.86890    0.54710    1.000
