# CIF file generated by openbabel 3.1.0, see https://openbabel.org
data_I
_chemical_name_common 'image0'
_cell_length_a 17.15
_cell_length_b 12.284
_cell_length_c 11.144
_cell_angle_alpha 90
_cell_angle_beta 127.549
_cell_angle_gamma 90
_space_group_name_H-M_alt 'P 1'
_space_group_name_Hall 'P 1'
loop_
    _symmetry_equiv_pos_as_xyz
    x,y,z
loop_
    _atom_site_label
    _atom_site_type_symbol
    _atom_site_fract_x
    _atom_site_fract_y
    _atom_site_fract_z
    _atom_site_occupancy
    Sm1      Sm       0.21681    0.35192    0.12023    1.000
    O1       O        0.16480    0.35550    0.27450    1.000
    O2       O        0.22600    0.16830    0.20840    1.000
    O3       O        0.12870    0.31560    0.42800    1.000
    O4       O        0.20040    0.01640    0.28490    1.000
    C1       C        0.13980    0.28890    0.33210    1.000
    C2       C        0.11890    0.17160    0.27930    1.000
    C3       C        0.18780    0.11610    0.25690    1.000
    O5       O        0.05100    0.25750    0.94110    1.000
    O6       O        0.15950    0.20960    0.90830    1.000
    C4       C        0.07570    0.20100    0.87580    1.000
    H1       H        0.05400    0.16700    0.18500    1.000
    H2       H        0.02900    0.07400    0.71100    1.000
    H3       H        0.11900    0.12600    0.36400    1.000
    Sm2      Sm       0.71681    0.85192    0.12023    1.000
    O7       O        0.66480    0.85550    0.27450    1.000
    O8       O        0.72600    0.66830    0.20840    1.000
    O9       O        0.62870    0.81560    0.42800    1.000
    O10      O        0.70040    0.51640    0.28490    1.000
    C5       C        0.63980    0.78890    0.33210    1.000
    C6       C        0.61890    0.67160    0.27930    1.000
    C7       C        0.68780    0.61610    0.25690    1.000
    O11      O        0.55100    0.75750    0.94110    1.000
    O12      O        0.65950    0.70960    0.90830    1.000
    C8       C        0.57570    0.70100    0.87580    1.000
    H4       H        0.55400    0.66700    0.18500    1.000
    H5       H        0.52900    0.57400    0.71100    1.000
    H6       H        0.61900    0.62600    0.36400    1.000
    Sm3      Sm       0.78319    0.35192    0.37977    1.000
    O13      O        0.83520    0.35550    0.22550    1.000
    O14      O        0.77400    0.16830    0.29160    1.000
    O15      O        0.87130    0.31560    0.07200    1.000
    O16      O        0.79960    0.01640    0.21510    1.000
    C9       C        0.86020    0.28890    0.16790    1.000
    C10      C        0.88110    0.17160    0.22070    1.000
    C11      C        0.81220    0.11610    0.24310    1.000
    O17      O        0.94900    0.25750    0.55890    1.000
    O18      O        0.84050    0.20960    0.59170    1.000
    C12      C        0.92430    0.20100    0.62420    1.000
    H7       H        0.94600    0.16700    0.31500    1.000
    H8       H        0.97100    0.07400    0.78900    1.000
    H9       H        0.88100    0.12600    0.13600    1.000
    Sm4      Sm       0.28319    0.85192    0.37977    1.000
    O19      O        0.33520    0.85550    0.22550    1.000
    O20      O        0.27400    0.66830    0.29160    1.000
    O21      O        0.37130    0.81560    0.07200    1.000
    O22      O        0.29960    0.51640    0.21510    1.000
    C13      C        0.36020    0.78890    0.16790    1.000
    C14      C        0.38110    0.67160    0.22070    1.000
    C15      C        0.31220    0.61610    0.24310    1.000
    O23      O        0.44900    0.75750    0.55890    1.000
    O24      O        0.34050    0.70960    0.59170    1.000
    C16      C        0.42430    0.70100    0.62420    1.000
    H10      H        0.44600    0.66700    0.31500    1.000
    H11      H        0.47100    0.57400    0.78900    1.000
    H12      H        0.38100    0.62600    0.13600    1.000
    Sm5      Sm       0.78319    0.64808    0.87977    1.000
    O25      O        0.83520    0.64450    0.72550    1.000
    O26      O        0.77400    0.83170    0.79160    1.000
    O27      O        0.87130    0.68440    0.57200    1.000
    O28      O        0.79960    0.98360    0.71510    1.000
    C17      C        0.86020    0.71110    0.66790    1.000
    C18      C        0.88110    0.82840    0.72070    1.000
    C19      C        0.81220    0.88390    0.74310    1.000
    O29      O        0.94900    0.74250    0.05890    1.000
    O30      O        0.84050    0.79040    0.09170    1.000
    C20      C        0.92430    0.79900    0.12420    1.000
    H13      H        0.94600    0.83300    0.81500    1.000
    H14      H        0.97100    0.92600    0.28900    1.000
    H15      H        0.88100    0.87400    0.63600    1.000
    Sm6      Sm       0.28319    0.14808    0.87977    1.000
    O31      O        0.33520    0.14450    0.72550    1.000
    O32      O        0.27400    0.33170    0.79160    1.000
    O33      O        0.37130    0.18440    0.57200    1.000
    O34      O        0.29960    0.48360    0.71510    1.000
    C21      C        0.36020    0.21110    0.66790    1.000
    C22      C        0.38110    0.32840    0.72070    1.000
    C23      C        0.31220    0.38390    0.74310    1.000
    O35      O        0.44900    0.24250    0.05890    1.000
    O36      O        0.34050    0.29040    0.09170    1.000
    C24      C        0.42430    0.29900    0.12420    1.000
    H16      H        0.44600    0.33300    0.81500    1.000
    H17      H        0.47100    0.42600    0.28900    1.000
    H18      H        0.38100    0.37400    0.63600    1.000
    Sm7      Sm       0.21681    0.64808    0.62023    1.000
    O37      O        0.16480    0.64450    0.77450    1.000
    O38      O        0.22600    0.83170    0.70840    1.000
    O39      O        0.12870    0.68440    0.92800    1.000
    O40      O        0.20040    0.98360    0.78490    1.000
    C25      C        0.13980    0.71110    0.83210    1.000
    C26      C        0.11890    0.82840    0.77930    1.000
    C27      C        0.18780    0.88390    0.75690    1.000
    O41      O        0.05100    0.74250    0.44110    1.000
    O42      O        0.15950    0.79040    0.40830    1.000
    C28      C        0.07570    0.79900    0.37580    1.000
    H19      H        0.05400    0.83300    0.68500    1.000
    H20      H        0.02900    0.92600    0.21100    1.000
    H21      H        0.11900    0.87400    0.86400    1.000
    Sm8      Sm       0.71681    0.14808    0.62023    1.000
    O43      O        0.66480    0.14450    0.77450    1.000
    O44      O        0.72600    0.33170    0.70840    1.000
    O45      O        0.62870    0.18440    0.92800    1.000
    O46      O        0.70040    0.48360    0.78490    1.000
    C29      C        0.63980    0.21110    0.83210    1.000
    C30      C        0.61890    0.32840    0.77930    1.000
    C31      C        0.68780    0.38390    0.75690    1.000
    O47      O        0.55100    0.24250    0.44110    1.000
    O48      O        0.65950    0.29040    0.40830    1.000
    C32      C        0.57570    0.29900    0.37580    1.000
    H22      H        0.55400    0.33300    0.68500    1.000
    H23      H        0.52900    0.42600    0.21100    1.000
    H24      H        0.61900    0.37400    0.86400    1.000
    C33      C        0.00000    0.12510    0.75000    1.000
    C34      C        0.50000    0.62510    0.75000    1.000
    C35      C        0.00000    0.87490    0.25000    1.000
    C36      C        0.50000    0.37490    0.25000    1.000
