# CIF file generated by openbabel 3.1.0, see https://openbabel.org
data_I
_chemical_name_common 'QUGNOV_clean'
_cell_length_a 6.721
_cell_length_b 10.1569
_cell_length_c 10.1569
_cell_angle_alpha 90.4069
_cell_angle_beta 93.0712
_cell_angle_gamma 86.9288
_space_group_name_H-M_alt 'P 1'
_space_group_name_Hall 'P 1'
loop_
    _symmetry_equiv_pos_as_xyz
    x,y,z
loop_
    _atom_site_label
    _atom_site_type_symbol
    _atom_site_fract_x
    _atom_site_fract_y
    _atom_site_fract_z
    _atom_site_occupancy
    Cd1      Cd       0.75000    0.57175    0.57175    1.000
    Cd2      Cd       0.25000    0.42825    0.42825    1.000
    H1       H        0.87460    0.35710    0.20670    1.000
    H2       H        0.78670    0.73810    0.28410    1.000
    H3       H        0.77980    0.39630    0.98890    1.000
    H4       H        0.66670    0.77970    0.06870    1.000
    H5       H        0.62540    0.20670    0.35710    1.000
    H6       H        0.71330    0.28410    0.73810    1.000
    H7       H        0.72020    0.98890    0.39630    1.000
    H8       H        0.83330    0.06870    0.77970    1.000
    H9       H        0.12540    0.64290    0.79330    1.000
    H10      H        0.21330    0.26190    0.71590    1.000
    H11      H        0.22020    0.60370    0.01110    1.000
    H12      H        0.33330    0.22030    0.93130    1.000
    H13      H        0.37460    0.79330    0.64290    1.000
    H14      H        0.28670    0.71590    0.26190    1.000
    H15      H        0.27980    0.01110    0.60370    1.000
    H16      H        0.16670    0.93130    0.22030    1.000
    C1       C        0.71300    0.59100    0.00220    1.000
    C2       C        0.83940    0.44230    0.17750    1.000
    C3       C        0.78330    0.66970    0.22290    1.000
    C4       C        0.65370    0.61950    0.85970    1.000
    C5       C        0.77790    0.46640    0.04820    1.000
    C6       C        0.71300    0.69510    0.09390    1.000
    C7       C        0.78700    0.00220    0.59100    1.000
    C8       C        0.66060    0.17750    0.44230    1.000
    C9       C        0.71670    0.22290    0.66970    1.000
    C10      C        0.84630    0.85970    0.61950    1.000
    C11      C        0.72210    0.04820    0.46640    1.000
    C12      C        0.78700    0.09390    0.69510    1.000
    C13      C        0.28700    0.40900    0.99780    1.000
    C14      C        0.16060    0.55770    0.82250    1.000
    C15      C        0.21670    0.33030    0.77710    1.000
    C16      C        0.34630    0.38050    0.14030    1.000
    C17      C        0.22210    0.53360    0.95180    1.000
    C18      C        0.28700    0.30490    0.90610    1.000
    C19      C        0.21300    0.99780    0.40900    1.000
    C20      C        0.33940    0.82250    0.55770    1.000
    C21      C        0.28330    0.77710    0.33030    1.000
    C22      C        0.15370    0.14030    0.38050    1.000
    C23      C        0.27790    0.95180    0.53360    1.000
    C24      C        0.21300    0.90610    0.30490    1.000
    N1       N        0.84700    0.54570    0.26030    1.000
    N2       N        0.65300    0.26030    0.54570    1.000
    N3       N        0.15300    0.45430    0.73970    1.000
    N4       N        0.34700    0.73970    0.45430    1.000
    O1       O        0.55900    0.72100    0.82680    1.000
    O2       O        0.92340    0.52380    0.38460    1.000
    O3       O        0.71380    0.52849    0.78117    1.000
    O4       O        0.94100    0.82680    0.72100    1.000
    O5       O        0.57660    0.38460    0.52380    1.000
    O6       O        0.78620    0.78117    0.52849    1.000
    O7       O        0.44100    0.27900    0.17320    1.000
    O8       O        0.07660    0.47620    0.61540    1.000
    O9       O        0.28620    0.47151    0.21883    1.000
    O10      O        0.05900    0.17320    0.27900    1.000
    O11      O        0.42340    0.61540    0.47620    1.000
    O12      O        0.21380    0.21883    0.47151    1.000
