# CIF file generated by openbabel 3.1.0, see https://openbabel.org
data_I
_chemical_name_common 'ja512973b_si_003'
_cell_length_a 25.334
_cell_length_b 25.334
_cell_length_c 25.334
_cell_angle_alpha 90
_cell_angle_beta 90
_cell_angle_gamma 90
_space_group_name_H-M_alt 'P 1'
_space_group_name_Hall 'P 1'
loop_
    _symmetry_equiv_pos_as_xyz
    x,y,z
loop_
    _atom_site_label
    _atom_site_type_symbol
    _atom_site_fract_x
    _atom_site_fract_y
    _atom_site_fract_z
    _atom_site_occupancy
    C1       C        0.52621    0.97785    0.33534    1.000
    C2       C        0.47214    0.97755    0.33505    1.000
    C3       C        0.45568    0.98677    0.38658    1.000
    N4       N        0.49860    0.99404    0.41782    1.000
    C5       C        0.54173    0.98832    0.38670    1.000
    X6       C        0.40208    0.99337    0.40285    1.000
    C7       C        0.38743    0.00174    0.45680    1.000
    C8       C        0.33694    0.01461    0.47418    1.000
    C9       C        0.33818    0.01539    0.52833    1.000
    C10      C        0.38893    0.00179    0.54344    1.000
    N11      N        0.41859    0.99331    0.49969    1.000
    X12      C        0.40508    0.99484    0.59677    1.000
    C13      C        0.45837    0.98821    0.61293    1.000
    C14      C        0.47391    0.97774    0.66428    1.000
    C15      C        0.52798    0.97752    0.66457    1.000
    C16      C        0.54442    0.98680    0.61304    1.000
    N17      N        0.50149    0.99402    0.58181    1.000
    X18      C        0.59800    0.99352    0.59678    1.000
    C19      C        0.61264    0.00196    0.54284    1.000
    C20      C        0.66309    0.01495    0.52547    1.000
    C21      C        0.66186    0.01573    0.47132    1.000
    C22      C        0.61114    0.00201    0.45619    1.000
    N23      N        0.58149    0.99345    0.49994    1.000
    X24      C        0.59501    0.99502    0.40286    1.000
    H25      H        0.55115    0.97193    0.30118    1.000
    H26      H        0.44817    0.97249    0.30013    1.000
    H27      H        0.54413    0.97687    0.50015    1.000
    H28      H        0.30186    0.02141    0.45093    1.000
    H29      H        0.30485    0.02390    0.55366    1.000
    H30      H        0.44898    0.97175    0.69844    1.000
    H31      H        0.55197    0.97247    0.69948    1.000
    H32      H        0.69517    0.02433    0.44599    1.000
    H33      H        0.45600    0.97683    0.49948    1.000
    H34      H        0.69814    0.02185    0.54873    1.000
    C35      C        0.47266    0.33038    0.02139    1.000
    C36      C        0.52673    0.33120    0.02232    1.000
    C37      C        0.54193    0.38230    0.01039    1.000
    N38      N        0.49867    0.41284    0.00295    1.000
    C39      C        0.45589    0.38146    0.01028    1.000
    X40      C        0.59490    0.39862    0.00242    1.000
    C41      C        0.60958    0.45178    0.99264    1.000
    C42      C        0.65745    0.46676    0.97085    1.000
    C43      C        0.65778    0.52093    0.96914    1.000
    C44      C        0.61038    0.53809    0.99071    1.000
    N45      N        0.58094    0.49547    0.00459    1.000
    X46      C        0.59613    0.59216    0.99756    1.000
    C47      C        0.54260    0.60789    0.00489    1.000
    C48      C        0.52635    0.65763    0.02115    1.000
    C49      C        0.47230    0.65738    0.02104    1.000
    C50      C        0.45673    0.60708    0.00627    1.000
    N51      N        0.49980    0.57693    0.99611    1.000
    X52      C        0.40341    0.59093    0.00017    1.000
    C53      C        0.38751    0.53759    0.99290    1.000
    C54      C        0.33613    0.52187    0.98279    1.000
    C55      C        0.33565    0.46770    0.98349    1.000
    C56      C        0.38697    0.45090    0.99357    1.000
    N57      N        0.41809    0.49418    0.99981    1.000
    X58      C        0.40228    0.39714    0.00217    1.000
    H59      H        0.44901    0.29533    0.02691    1.000
    H60      H        0.55188    0.29746    0.02959    1.000
    H61      H        0.45650    0.49456    0.01368    1.000
    H62      H        0.68877    0.44125    0.95695    1.000
    H63      H        0.68935    0.54490    0.95323    1.000
    H64      H        0.55074    0.69079    0.03247    1.000
    H65      H        0.44752    0.69061    0.03123    1.000
    H66      H        0.30046    0.44395    0.97938    1.000
    H67      H        0.54583    0.49617    0.02587    1.000
    H68      H        0.30178    0.54667    0.97749    1.000
    C69      C        0.03510    0.52250    0.65701    1.000
    C70      C        0.03624    0.46842    0.65690    1.000
    C71      C        0.01130    0.45214    0.61098    1.000
    N72      N        0.99572    0.49474    0.58249    1.000
    C73      C        0.00961    0.53788    0.61108    1.000
    X74      C        0.00167    0.39871    0.59670    1.000
    C75      C        0.99066    0.38487    0.54336    1.000
    C76      C        0.96427    0.33956    0.52754    1.000
    C77      C        0.96432    0.33929    0.47331    1.000
    C78      C        0.99075    0.38443    0.45704    1.000
    N79      N        0.00582    0.41260    0.50010    1.000
    X80      C        0.00129    0.39796    0.40347    1.000
    C81      C        0.01160    0.45118    0.38887    1.000
    C82      C        0.03405    0.46738    0.34158    1.000
    C83      C        0.03373    0.52154    0.34180    1.000
    C84      C        0.01188    0.53681    0.38949    1.000
    N85      N        0.99863    0.49382    0.41843    1.000
    X86      C        0.00106    0.58957    0.40420    1.000
    C87      C        0.98892    0.60362    0.45689    1.000
    C88      C        0.96463    0.65024    0.47192    1.000
    C89      C        0.96355    0.65058    0.52621    1.000
    C90      C        0.98808    0.60452    0.54308    1.000
    N91      N        0.00263    0.57568    0.50041    1.000
    X92      C        0.99864    0.59103    0.59661    1.000
    H93      H        0.05205    0.54765    0.68709    1.000
    H94      H        0.05417    0.44391    0.68694    1.000
    H95      H        0.02569    0.54162    0.50094    1.000
    H96      H        0.94635    0.30989    0.55251    1.000
    H97      H        0.94632    0.30940    0.44866    1.000
    H98      H        0.04931    0.44282    0.31015    1.000
    H99      H        0.04816    0.54679    0.31051    1.000
    H100     H        0.94670    0.68145    0.55044    1.000
    H101     H        0.02957    0.44621    0.50010    1.000
    H102     H        0.94926    0.68086    0.44639    1.000
    O103     O        0.92893    0.99398    0.86325    1.000
    O104     O        0.92778    0.99604    0.13548    1.000
    O105     O        0.86382    0.92312    0.99742    1.000
    O106     O        0.86406    0.06671    0.00045    1.000
    O107     O        0.92856    0.13095    0.00146    1.000
    O108     O        0.92815    0.85876    0.99744    1.000
    O109     O        0.86365    0.99688    0.07087    1.000
    O110     O        0.86423    0.99273    0.92732    1.000
    Zr111    Zr       0.90689    0.99486    0.99929    1.000
    O112     O        0.95198    0.04271    0.04747    1.000
    O113     O        0.95220    0.94691    0.95150    1.000
    X114     C        0.87989    0.99267    0.87842    1.000
    X115     C        0.87889    0.99718    0.11990    1.000
    X116     C        0.87917    0.87412    0.99652    1.000
    X117     C        0.87954    0.11566    0.00162    1.000
    H118     H        0.92943    0.92456    0.06951    1.000
    O119     O        0.95208    0.94711    0.04713    1.000
    H120     H        0.93028    0.06514    0.92934    1.000
    O121     O        0.95267    0.04256    0.95196    1.000
    O122     O        0.07107    0.99357    0.13640    1.000
    O123     O        0.07233    0.99615    0.86415    1.000
    O124     O        0.00118    0.85859    0.07136    1.000
    O125     O        0.99863    0.13083    0.07165    1.000
    O126     O        0.00233    0.13094    0.92809    1.000
    O127     O        0.99855    0.85876    0.92784    1.000
    O128     O        0.13597    0.92264    0.00269    1.000
    O129     O        0.13642    0.06615    0.99982    1.000
    O130     O        0.07139    0.85841    0.00074    1.000
    O131     O        0.07215    0.13066    0.99801    1.000
    O132     O        0.00122    0.92289    0.13577    1.000
    O133     O        0.99860    0.92318    0.86357    1.000
    O134     O        0.00236    0.06659    0.86373    1.000
    O135     O        0.99759    0.06637    0.13589    1.000
    O136     O        0.13581    0.99219    0.07238    1.000
    O137     O        0.13646    0.99653    0.92879    1.000
    Zr138    Zr       0.99963    0.99467    0.09286    1.000
    Zr139    Zr       0.00043    0.99487    0.90669    1.000
    Zr140    Zr       0.99987    0.90165    0.99962    1.000
    Zr141    Zr       0.00026    0.08788    0.99983    1.000
    Zr142    Zr       0.09321    0.99453    0.00039    1.000
    O143     O        0.04835    0.04259    0.95217    1.000
    O144     O        0.04767    0.94660    0.04796    1.000
    X145     C        0.12012    0.99216    0.12127    1.000
    X146     C        0.12123    0.99705    0.87975    1.000
    X147     C        0.00184    0.87390    0.12038    1.000
    X148     C        0.99737    0.11540    0.12062    1.000
    X149     C        0.00313    0.11558    0.87909    1.000
    X150     C        0.99791    0.87417    0.87887    1.000
    X151     C        0.12034    0.87373    0.00243    1.000
    X152     C        0.12109    0.11513    0.99835    1.000
    H153     H        0.07044    0.92460    0.92986    1.000
    O154     O        0.04785    0.94712    0.95234    1.000
    H155     H        0.07001    0.06476    0.07041    1.000
    O156     O        0.04758    0.04230    0.04773    1.000
    C157     C        0.28239    0.99188    0.28417    1.000
    C158     C        0.29067    0.03694    0.31549    1.000
    C159     C        0.33021    0.03763    0.35422    1.000
    X160     C        0.36189    0.99285    0.36350    1.000
    C161     C        0.35331    0.94769    0.33216    1.000
    C162     C        0.31438    0.94736    0.29280    1.000
    C163     C        0.24068    0.99142    0.24255    1.000
    C164     C        0.25163    0.97233    0.19158    1.000
    C165     C        0.21268    0.97278    0.15222    1.000
    X166     C        0.16148    0.99140    0.16311    1.000
    C167     C        0.15039    0.00986    0.21434    1.000
    C168     C        0.18963    0.01031    0.25339    1.000
    H169     H        0.33652    0.07352    0.37661    1.000
    H170     H        0.37660    0.91237    0.33846    1.000
    H171     H        0.22259    0.95819    0.11328    1.000
    H172     H        0.11150    0.02471    0.22408    1.000
    H173     H        0.30868    0.91191    0.26960    1.000
    H174     H        0.29067    0.95785    0.18192    1.000
    H175     H        0.26715    0.07209    0.30929    1.000
    H176     H        0.17989    0.02493    0.29237    1.000
    C177     C        0.71603    0.99716    0.28213    1.000
    C178     C        0.67734    0.03698    0.28416    1.000
    C179     C        0.63835    0.03647    0.32340    1.000
    X180     C        0.63678    0.99580    0.36107    1.000
    C181     C        0.67520    0.95590    0.35904    1.000
    C182     C        0.71453    0.95669    0.32017    1.000
    C183     C        0.75780    0.99780    0.24059    1.000
    C184     C        0.81052    0.98601    0.25330    1.000
    C185     C        0.84976    0.98633    0.21434    1.000
    X186     C        0.83724    0.99794    0.16145    1.000
    C187     C        0.78445    0.00974    0.14875    1.000
    C188     C        0.74530    0.00994    0.18787    1.000
    H189     H        0.60928    0.06780    0.32444    1.000
    H190     H        0.67465    0.92411    0.38762    1.000
    H191     H        0.88990    0.97697    0.22566    1.000
    H192     H        0.77331    0.01899    0.10853    1.000
    H193     H        0.74338    0.92516    0.31938    1.000
    H194     H        0.82157    0.97705    0.29361    1.000
    H195     H        0.67773    0.06899    0.25584    1.000
    H196     H        0.70500    0.01876    0.17669    1.000
    C197     C        0.71763    0.99227    0.71552    1.000
    C198     C        0.70921    0.03735    0.68426    1.000
    C199     C        0.66970    0.03795    0.64549    1.000
    X200     C        0.63818    0.99308    0.63612    1.000
    C201     C        0.64690    0.94790    0.66741    1.000
    C202     C        0.68581    0.94764    0.70679    1.000
    C203     C        0.75933    0.99189    0.75717    1.000
    C204     C        0.74854    0.97235    0.80801    1.000
    C205     C        0.78749    0.97281    0.84737    1.000
    X206     C        0.83852    0.99195    0.83661    1.000
    C207     C        0.84947    0.01089    0.78553    1.000
    C208     C        0.81023    0.01129    0.74647    1.000
    H209     H        0.66329    0.07385    0.62315    1.000
    H210     H        0.62373    0.91251    0.66104    1.000
    H211     H        0.77774    0.95776    0.88619    1.000
    H212     H        0.88824    0.02612    0.77591    1.000
    H213     H        0.69163    0.91217    0.72992    1.000
    H214     H        0.70962    0.95746    0.81756    1.000
    H215     H        0.73258    0.07259    0.69054    1.000
    H216     H        0.81987    0.02625    0.70761    1.000
    C217     C        0.28409    0.99692    0.71753    1.000
    C218     C        0.28562    0.95642    0.67953    1.000
    C219     C        0.32494    0.95565    0.64065    1.000
    X220     C        0.36333    0.99559    0.63857    1.000
    C221     C        0.36173    0.03627    0.67622    1.000
    C222     C        0.32274    0.03677    0.71547    1.000
    C223     C        0.24233    0.99756    0.75907    1.000
    C224     C        0.25482    0.00974    0.81179    1.000
    C225     C        0.21568    0.00957    0.85091    1.000
    X226     C        0.16288    0.99776    0.83821    1.000
    C227     C        0.15037    0.98610    0.78533    1.000
    C228     C        0.18961    0.98574    0.74637    1.000
    H229     H        0.32552    0.92384    0.61208    1.000
    H230     H        0.39077    0.06764    0.67516    1.000
    H231     H        0.22681    0.01885    0.89112    1.000
    H232     H        0.11023    0.97671    0.77402    1.000
    H233     H        0.32233    0.06880    0.74377    1.000
    H234     H        0.29512    0.01857    0.82296    1.000
    H235     H        0.25680    0.92487    0.68034    1.000
    H236     H        0.17857    0.97675    0.70607    1.000
    C237     C        0.28327    0.27790    0.99995    1.000
    C238     C        0.29219    0.30989    0.95551    1.000
    C239     C        0.33153    0.34879    0.95613    1.000
    X240     C        0.36249    0.35742    0.00155    1.000
    C241     C        0.35304    0.32561    0.04620    1.000
    C242     C        0.31429    0.28611    0.04524    1.000
    C243     C        0.24180    0.23609    0.99908    1.000
    C244     C        0.25263    0.18509    0.01811    1.000
    C245     C        0.21375    0.14571    0.01717    1.000
    X246     C        0.16275    0.15661    0.99803    1.000
    C247     C        0.15186    0.20774    0.97921    1.000
    C248     C        0.19105    0.24684    0.97930    1.000
    H249     H        0.33822    0.37192    0.92078    1.000
    H250     H        0.37544    0.33169    0.08212    1.000
    H251     H        0.22345    0.10687    0.03216    1.000
    H252     H        0.11310    0.21744    0.96402    1.000
    H253     H        0.30792    0.26249    0.08029    1.000
    H254     H        0.29146    0.17550    0.03320    1.000
    H255     H        0.26931    0.30414    0.91986    1.000
    H256     H        0.18144    0.28584    0.96466    1.000
    C257     C        0.28227    0.71133    0.00246    1.000
    C258     C        0.29659    0.68646    0.95495    1.000
    C259     C        0.33622    0.64787    0.95420    1.000
    X260     C        0.36151    0.63253    0.00110    1.000
    C261     C        0.34673    0.65680    0.04873    1.000
    C262     C        0.30795    0.69629    0.04931    1.000
    C263     C        0.24063    0.75278    0.00306    1.000
    C264     C        0.24983    0.80184    0.02730    1.000
    C265     C        0.21098    0.84127    0.02678    1.000
    X266     C        0.16161    0.83204    0.00310    1.000
    C267     C        0.15219    0.78264    0.97956    1.000
    C268     C        0.19146    0.74369    0.97902    1.000
    H269     H        0.34704    0.62966    0.91707    1.000
    H270     H        0.36559    0.64539    0.08536    1.000
    H271     H        0.21937    0.87883    0.04538    1.000
    H272     H        0.11468    0.77441    0.96075    1.000
    H273     H        0.29741    0.71458    0.08649    1.000
    H274     H        0.28747    0.80995    0.04588    1.000
    H275     H        0.27763    0.69751    0.91827    1.000
    H276     H        0.18327    0.70614    0.96028    1.000
    C277     C        0.71672    0.71065    0.99421    1.000
    C278     C        0.66990    0.71689    0.96503    1.000
    C279     C        0.63056    0.67799    0.96578    1.000
    X280     C        0.63658    0.63152    0.99591    1.000
    C281     C        0.68395    0.62512    0.02451    1.000
    C282     C        0.72326    0.66407    0.02376    1.000
    C283     C        0.75838    0.75259    0.99407    1.000
    C284     C        0.81230    0.73922    0.99427    1.000
    C285     C        0.85130    0.77848    0.99479    1.000
    X286     C        0.83757    0.83235    0.99514    1.000
    C287     C        0.78363    0.84573    0.99462    1.000
    C288     C        0.74464    0.80644    0.99409    1.000
    H289     H        0.59568    0.68386    0.94174    1.000
    H290     H        0.68999    0.59053    0.04891    1.000
    H291     H        0.89232    0.76645    0.99495    1.000
    H292     H        0.77136    0.88667    0.99495    1.000
    H293     H        0.75837    0.65814    0.04737    1.000
    H294     H        0.82448    0.69827    0.99346    1.000
    H295     H        0.66391    0.75162    0.94086    1.000
    H296     H        0.70360    0.81833    0.99464    1.000
    C297     C        0.71725    0.27894    0.00158    1.000
    C298     C        0.67640    0.27801    0.96390    1.000
    C299     C        0.63713    0.31699    0.96377    1.000
    X300     C        0.63737    0.35746    0.00170    1.000
    C301     C        0.67833    0.35880    0.03905    1.000
    C302     C        0.71787    0.32007    0.03895    1.000
    C303     C        0.75885    0.23709    0.00199    1.000
    C304     C        0.81213    0.24996    0.01096    1.000
    C305     C        0.85116    0.21071    0.01091    1.000
    X306     C        0.83796    0.15741    0.00228    1.000
    C307     C        0.78456    0.14454    0.99375    1.000
    C308     C        0.74562    0.18385    0.99340    1.000
    H309     H        0.60632    0.31552    0.93417    1.000
    H310     H        0.67939    0.38967    0.06860    1.000
    H311     H        0.89176    0.22224    0.01769    1.000
    H312     H        0.77276    0.10402    0.98697    1.000
    H313     H        0.74844    0.32176    0.06877    1.000
    H314     H        0.82379    0.29059    0.01722    1.000
    H315     H        0.67516    0.24743    0.93407    1.000
    H316     H        0.70493    0.17243    0.98702    1.000
    C317     C        0.99755    0.27784    0.28430    1.000
    C318     C        0.02212    0.26872    0.33329    1.000
    C319     C        0.02308    0.30790    0.37239    1.000
    X320     C        0.99981    0.35779    0.36377    1.000
    C321     C        0.97487    0.36653    0.31470    1.000
    C322     C        0.97375    0.32727    0.27574    1.000
    C323     C        0.99692    0.23616    0.24229    1.000
    C324     C        0.00166    0.24972    0.18859    1.000
    C325     C        0.00140    0.21076    0.14927    1.000
    X326     C        0.99659    0.15699    0.16243    1.000
    C327     C        0.99169    0.14341    0.21611    1.000
    C328     C        0.99178    0.18240    0.25541    1.000
    H329     H        0.04362    0.29961    0.40896    1.000
    H330     H        0.95477    0.40343    0.30682    1.000
    H331     H        0.00552    0.22289    0.10849    1.000
    H332     H        0.98764    0.10253    0.22792    1.000
    H333     H        0.95333    0.33545    0.23911    1.000
    H334     H        0.00652    0.29051    0.17685    1.000
    H335     H        0.04169    0.23157    0.34115    1.000
    H336     H        0.98717    0.17035    0.29615    1.000
    C337     C        0.00327    0.27858    0.71601    1.000
    C338     C        0.02598    0.26959    0.66613    1.000
    C339     C        0.02527    0.30877    0.62703    1.000
    X340     C        0.00203    0.35854    0.63648    1.000
    C341     C        0.97912    0.36721    0.68656    1.000
    C342     C        0.97972    0.32796    0.72555    1.000
    C343     C        0.00393    0.23670    0.75781    1.000
    C344     C        0.01056    0.24992    0.81140    1.000
    C345     C        0.01054    0.21080    0.85057    1.000
    X346     C        0.00404    0.15722    0.83734    1.000
    C347     C        0.99778    0.14394    0.78373    1.000
    C348     C        0.99765    0.18309    0.74459    1.000
    H349     H        0.04451    0.30055    0.58974    1.000
    H350     H        0.95919    0.40402    0.69526    1.000
    H351     H        0.01583    0.22264    0.89130    1.000
    H352     H        0.99234    0.10323    0.77189    1.000
    H353     H        0.96073    0.33604    0.76296    1.000
    H354     H        0.01639    0.29058    0.82314    1.000
    H355     H        0.04533    0.23248    0.65751    1.000
    H356     H        0.99165    0.17132    0.70395    1.000
    C357     C        0.99727    0.71117    0.71581    1.000
    C358     C        0.97385    0.66164    0.72490    1.000
    C359     C        0.97435    0.62234    0.68595    1.000
    X360     C        0.99809    0.63122    0.63631    1.000
    C361     C        0.02138    0.68104    0.62736    1.000
    C362     C        0.02105    0.72024    0.66643    1.000
    C363     C        0.99708    0.75301    0.75764    1.000
    C364     C        0.99134    0.80668    0.74438    1.000
    C365     C        0.99149    0.84583    0.78353    1.000
    X366     C        0.99721    0.83249    0.83717    1.000
    C367     C        0.00273    0.77881    0.85047    1.000
    C368     C        0.00276    0.73970    0.81131    1.000
    H369     H        0.95466    0.58531    0.69427    1.000
    H370     H        0.04147    0.68930    0.59054    1.000
    H371     H        0.98687    0.88663    0.77165    1.000
    H372     H        0.00758    0.76687    0.89123    1.000
    H373     H        0.04047    0.75741    0.65823    1.000
    H374     H        0.98603    0.81852    0.70367    1.000
    H375     H        0.95420    0.65341    0.76193    1.000
    H376     H        0.00813    0.69899    0.82312    1.000
    C377     C        0.00183    0.71108    0.28345    1.000
    C378     C        0.96920    0.66632    0.27862    1.000
    C379     C        0.96878    0.62720    0.31775    1.000
    X380     C        0.00114    0.63163    0.36259    1.000
    C381     C        0.03364    0.67630    0.36763    1.000
    C382     C        0.03395    0.71556    0.32861    1.000
    C383     C        0.00230    0.75281    0.24163    1.000
    C384     C        0.00538    0.80662    0.25509    1.000
    C385     C        0.00539    0.84574    0.21593    1.000
    X386     C        0.00250    0.83220    0.16208    1.000
    C387     C        0.99971    0.77834    0.14863    1.000
    C388     C        0.99953    0.73926    0.18782    1.000
    H389     H        0.94299    0.59341    0.31315    1.000
    H390     H        0.05912    0.68055    0.40169    1.000
    H391     H        0.00748    0.88669    0.22799    1.000
    H392     H        0.99752    0.76621    0.10770    1.000
    H393     H        0.06003    0.74907    0.33341    1.000
    H394     H        0.00691    0.81862    0.29608    1.000
    H395     H        0.94336    0.66188    0.24488    1.000
    H396     H        0.99784    0.69825    0.17589    1.000
