# CIF file generated by openbabel 3.1.0, see https://openbabel.org
data_I
_chemical_name_common 'image0'
_cell_length_a 7.3181
_cell_length_b 17.02
_cell_length_c 10.5789
_cell_angle_alpha 90
_cell_angle_beta 102.651
_cell_angle_gamma 90
_space_group_name_H-M_alt 'P 1'
_space_group_name_Hall 'P 1'
loop_
    _symmetry_equiv_pos_as_xyz
    x,y,z
loop_
    _atom_site_label
    _atom_site_type_symbol
    _atom_site_fract_x
    _atom_site_fract_y
    _atom_site_fract_z
    _atom_site_occupancy
    In1      In       0.69333    0.39814    0.18043    1.000
    In2      In       0.20093    0.45343    0.26209    1.000
    O1       O        0.66910    0.53670    0.08180    1.000
    O2       O        0.58600    0.42520    0.98040    1.000
    O3       O        0.46200    0.78750    0.87350    1.000
    O4       O        0.28250    0.78920    0.67900    1.000
    O5       O        0.29720    0.43330    0.50110    1.000
    O6       O        0.25410    0.54960    0.40960    1.000
    O7       O        0.85550    0.06730    0.85730    1.000
    O8       O        0.88890    0.95720    0.96520    1.000
    O9       O        0.91600    0.32040    0.11270    1.000
    O10      O        0.19320    0.32850    0.25910    1.000
    O11      O        0.30000    0.06940    0.53210    1.000
    O12      O        0.11670    0.97130    0.45020    1.000
    O13      O        0.91970    0.45020    0.29060    1.000
    O14      O        0.49560    0.45100    0.26720    1.000
    C1       C        0.51220    0.54460    0.86500    1.000
    C2       C        0.49600    0.62410    0.86920    1.000
    H1       H        0.53840    0.65030    0.94720    1.000
    C3       C        0.41700    0.66660    0.75900    1.000
    C4       C        0.34300    0.62690    0.64290    1.000
    H2       H        0.28130    0.65500    0.57060    1.000
    C5       C        0.36100    0.54650    0.63530    1.000
    C6       C        0.44620    0.50570    0.74740    1.000
    H3       H        0.45940    0.45150    0.74370    1.000
    C7       C        0.59800    0.50120    0.98420    1.000
    C8       C        0.39000    0.75190    0.77220    1.000
    C9       C        0.29900    0.50620    0.50610    1.000
    C10      C        0.97570    0.07720    0.08530    1.000
    C11      C        0.98100    0.15800    0.08390    1.000
    H4       H        0.93010    0.18440    0.00730    1.000
    C12      C        0.05900    0.20080    0.19250    1.000
    C13      C        0.13330    0.16070    0.30710    1.000
    H5       H        0.19330    0.18830    0.38040    1.000
    C14      C        0.11750    0.07920    0.31150    1.000
    C15      C        0.04700    0.03730    0.20340    1.000
    H6       H        0.04590    0.98270    0.20630    1.000
    C16      C        0.90200    0.02950    0.96490    1.000
    C17      C        0.05600    0.28930    0.18900    1.000
    C18      C        0.18400    0.03780    0.43880    1.000
    In3      In       0.30667    0.89814    0.81957    1.000
    In4      In       0.79907    0.95343    0.73791    1.000
    O15      O        0.33090    0.03670    0.91820    1.000
    O16      O        0.41400    0.92520    0.01960    1.000
    O17      O        0.53800    0.28750    0.12650    1.000
    O18      O        0.71750    0.28920    0.32100    1.000
    O19      O        0.70280    0.93330    0.49890    1.000
    O20      O        0.74590    0.04960    0.59040    1.000
    O21      O        0.14450    0.56730    0.14270    1.000
    O22      O        0.11110    0.45720    0.03480    1.000
    O23      O        0.08400    0.82040    0.88730    1.000
    O24      O        0.80680    0.82850    0.74090    1.000
    O25      O        0.70000    0.56940    0.46790    1.000
    O26      O        0.88330    0.47130    0.54980    1.000
    O27      O        0.08030    0.95020    0.70940    1.000
    O28      O        0.50440    0.95100    0.73280    1.000
    C19      C        0.48780    0.04460    0.13500    1.000
    C20      C        0.50400    0.12410    0.13080    1.000
    H7       H        0.46160    0.15030    0.05280    1.000
    C21      C        0.58300    0.16660    0.24100    1.000
    C22      C        0.65700    0.12690    0.35710    1.000
    H8       H        0.71870    0.15500    0.42940    1.000
    C23      C        0.63900    0.04650    0.36470    1.000
    C24      C        0.55380    0.00570    0.25260    1.000
    H9       H        0.54060    0.95150    0.25630    1.000
    C25      C        0.40200    0.00120    0.01580    1.000
    C26      C        0.61000    0.25190    0.22780    1.000
    C27      C        0.70100    0.00620    0.49390    1.000
    C28      C        0.02430    0.57720    0.91470    1.000
    C29      C        0.01900    0.65800    0.91610    1.000
    H10      H        0.06990    0.68440    0.99270    1.000
    C30      C        0.94100    0.70080    0.80750    1.000
    C31      C        0.86670    0.66070    0.69290    1.000
    H11      H        0.80670    0.68830    0.61960    1.000
    C32      C        0.88250    0.57920    0.68850    1.000
    C33      C        0.95300    0.53730    0.79660    1.000
    H12      H        0.95410    0.48270    0.79370    1.000
    C34      C        0.09800    0.52950    0.03510    1.000
    C35      C        0.94400    0.78930    0.81100    1.000
    C36      C        0.81600    0.53780    0.56120    1.000
