# CIF file generated by openbabel 3.1.0, see https://openbabel.org
data_I
_chemical_name_common 'cg0702636-file001_clean'
_cell_length_a 9.1907
_cell_length_b 9.1907
_cell_length_c 12.759
_cell_angle_alpha 90
_cell_angle_beta 90
_cell_angle_gamma 120
_space_group_name_H-M_alt 'P 1'
_space_group_name_Hall 'P 1'
loop_
    _symmetry_equiv_pos_as_xyz
    x,y,z
loop_
    _atom_site_label
    _atom_site_type_symbol
    _atom_site_fract_x
    _atom_site_fract_y
    _atom_site_fract_z
    _atom_site_occupancy
    Cd1      Cd       0.63735    0.00000    0.00000    1.000
    Cd2      Cd       0.00000    0.63735    0.33333    1.000
    Cd3      Cd       0.36265    0.36265    0.66667    1.000
    H1       H        0.96380    0.79430    0.54947    1.000
    H2       H        0.83050    0.03620    0.21613    1.000
    H3       H        0.79430    0.96380    0.78387    1.000
    H4       H        0.16950    0.20570    0.45053    1.000
    H5       H        0.03620    0.83050    0.11720    1.000
    H6       H        0.20570    0.16950    0.88280    1.000
    C1       C        0.07120    0.07120    0.66667    1.000
    C2       C        0.88000    0.77970    0.59632    1.000
    C3       C        0.68030    0.48350    0.52295    1.000
    C4       C        0.48350    0.68030    0.81039    1.000
    C5       C        0.63100    0.72590    0.73581    1.000
    C6       C        0.09490    0.36900    0.40247    1.000
    C7       C        0.90580    0.90580    0.66667    1.000
    C8       C        0.12000    0.89970    0.07035    1.000
    C9       C        0.22030    0.10030    0.92965    1.000
    C10      C        0.51650    0.19680    0.85628    1.000
    C11      C        0.72590    0.63100    0.59753    1.000
    C12      C        0.00000    0.92880    0.33333    1.000
    C13      C        0.92880    0.00000    0.00000    1.000
    C14      C        0.77970    0.88000    0.73702    1.000
    C15      C        0.80320    0.31970    0.18961    1.000
    C16      C        0.89970    0.12000    0.26298    1.000
    C17      C        0.90510    0.27410    0.26419    1.000
    C18      C        0.27410    0.90510    0.06914    1.000
    C19      C        0.36900    0.09490    0.93086    1.000
    C20      C        0.00000    0.09420    0.33333    1.000
    C21      C        0.09420    0.00000    0.00000    1.000
    C22      C        0.10030    0.22030    0.40368    1.000
    C23      C        0.19680    0.51650    0.47705    1.000
    C24      C        0.31970    0.80320    0.14372    1.000
    N1       N        0.60760    0.60760    0.66667    1.000
    N2       N        0.00000    0.39240    0.33333    1.000
    N3       N        0.39240    0.00000    0.00000    1.000
    O1       O        0.35610    0.53990    0.79814    1.000
    O2       O        0.64390    0.18380    0.86853    1.000
    O3       O        0.92439    0.11859    0.95657    1.000
    O4       O        0.88141    0.80580    0.28990    1.000
    O5       O        0.53990    0.35610    0.53520    1.000
    O6       O        0.19420    0.07561    0.62324    1.000
    O7       O        0.49920    0.78560    0.87572    1.000
    O8       O        0.07561    0.19420    0.71010    1.000
    O9       O        0.28640    0.50080    0.54238    1.000
    O10      O        0.78560    0.49920    0.45762    1.000
    O11      O        0.11859    0.92439    0.37676    1.000
    O12      O        0.80580    0.88141    0.04343    1.000
    O13      O        0.50080    0.28640    0.79095    1.000
    O14      O        0.81620    0.46010    0.20186    1.000
    O15      O        0.18380    0.64390    0.46480    1.000
    O16      O        0.21440    0.71360    0.20905    1.000
    O17      O        0.71360    0.21440    0.12428    1.000
    O18      O        0.46010    0.81620    0.13147    1.000
