# CIF file generated by openbabel 3.1.0, see https://openbabel.org
data_I
_chemical_name_common 'image0'
_cell_length_a 9.3435
_cell_length_b 22.187
_cell_length_c 13.8761
_cell_angle_alpha 90
_cell_angle_beta 109.571
_cell_angle_gamma 90
_space_group_name_H-M_alt 'P 1'
_space_group_name_Hall 'P 1'
loop_
    _symmetry_equiv_pos_as_xyz
    x,y,z
loop_
    _atom_site_label
    _atom_site_type_symbol
    _atom_site_fract_x
    _atom_site_fract_y
    _atom_site_fract_z
    _atom_site_occupancy
    Y1       Y        0.24708    0.93824    0.48929    1.000
    O1       O        0.09850    0.01549    0.42080    1.000
    O2       O        0.85120    0.07350    0.38540    1.000
    O3       O        0.58560    0.13570    0.46060    1.000
    O4       O        0.16360    0.44440    0.14290    1.000
    O5       O        0.90580    0.49471    0.08680    1.000
    O6       O        0.43610    0.38020    0.11610    1.000
    P1       P        0.98611    0.05873    0.35459    1.000
    O7       O        0.91660    0.03450    0.24270    1.000
    C1       C        0.08250    0.12740    0.34670    1.000
    H1       H        0.98050    0.01260    0.22900    1.000
    C2       C        0.23890    0.13000    0.37480    1.000
    C3       C        0.99670    0.17830    0.30730    1.000
    H2       H        0.29880    0.09550    0.40210    1.000
    C4       C        0.30810    0.18360    0.36260    1.000
    C5       C        0.06070    0.23280    0.29380    1.000
    H3       H        0.88940    0.17570    0.28860    1.000
    P2       P        0.50610    0.18459    0.37060    1.000
    C6       C        0.22000    0.23420    0.32320    1.000
    C7       C        0.96640    0.28660    0.25090    1.000
    O8       O        0.52830    0.17500    0.26730    1.000
    O9       O        0.55960    0.24830    0.40960    1.000
    H4       H        0.26880    0.27060    0.31590    1.000
    C8       C        0.80910    0.28580    0.23310    1.000
    C9       C        0.02610    0.33940    0.22640    1.000
    C10      C        0.71750    0.33440    0.19250    1.000
    H5       H        0.76460    0.25050    0.24960    1.000
    C11      C        0.93550    0.38940    0.18570    1.000
    H6       H        0.13200    0.34150    0.23760    1.000
    P3       P        0.52080    0.33195    0.18520    1.000
    C12      C        0.77980    0.38680    0.16710    1.000
    P4       P        0.02119    0.45815    0.16500    1.000
    O10      O        0.50760    0.34360    0.29400    1.000
    O11      O        0.46800    0.26710    0.15760    1.000
    H7       H        0.71670    0.42020    0.13740    1.000
    O12      O        0.07410    0.49090    0.27110    1.000
    H8       H        0.00410    0.51330    0.27530    1.000
    O13      O        0.59100    0.13390    0.22710    1.000
    O14      O        0.59650    0.06980    0.18670    1.000
    P5       P        0.51630    0.19460    0.43440    1.000
    O15      O        0.55610    0.23120    0.54060    1.000
    O16      O        0.56940    0.23280    0.36490    1.000
    O17      O        0.58220    0.13240    0.42870    1.000
    P6       P        0.51280    0.32290    0.14990    1.000
    O18      O        0.46910    0.26310    0.11250    1.000
    O19      O        0.48920    0.32930    0.25960    1.000
    O20      O        0.43060    0.37290    0.08660    1.000
    Y2       Y        0.25292    0.43824    0.01071    1.000
    O21      O        0.40150    0.51549    0.07920    1.000
    O22      O        0.64880    0.57350    0.11460    1.000
    O23      O        0.91440    0.63570    0.03940    1.000
    O24      O        0.33640    0.94440    0.35710    1.000
    O25      O        0.59420    0.99471    0.41320    1.000
    O26      O        0.06390    0.88020    0.38390    1.000
    P7       P        0.51389    0.55873    0.14541    1.000
    O27      O        0.58340    0.53450    0.25730    1.000
    C13      C        0.41750    0.62740    0.15330    1.000
    H9       H        0.51950    0.51260    0.27100    1.000
    C14      C        0.26110    0.63000    0.12520    1.000
    C15      C        0.50330    0.67830    0.19270    1.000
    H10      H        0.20120    0.59550    0.09790    1.000
    C16      C        0.19190    0.68360    0.13740    1.000
    C17      C        0.43930    0.73280    0.20620    1.000
    H11      H        0.61060    0.67570    0.21140    1.000
    P8       P        0.99390    0.68459    0.12940    1.000
    C18      C        0.28000    0.73420    0.17680    1.000
    C19      C        0.53360    0.78660    0.24910    1.000
    O28      O        0.97170    0.67500    0.23270    1.000
    O29      O        0.94040    0.74830    0.09040    1.000
    H12      H        0.23120    0.77060    0.18410    1.000
    C20      C        0.69090    0.78580    0.26690    1.000
    C21      C        0.47390    0.83940    0.27360    1.000
    C22      C        0.78250    0.83440    0.30750    1.000
    H13      H        0.73540    0.75050    0.25040    1.000
    C23      C        0.56450    0.88940    0.31430    1.000
    H14      H        0.36800    0.84150    0.26240    1.000
    P9       P        0.97920    0.83195    0.31480    1.000
    C24      C        0.72020    0.88680    0.33290    1.000
    P10      P        0.47881    0.95815    0.33500    1.000
    O30      O        0.99240    0.84360    0.20600    1.000
    O31      O        0.03200    0.76710    0.34240    1.000
    H15      H        0.78330    0.92020    0.36260    1.000
    O32      O        0.42590    0.99090    0.22890    1.000
    H16      H        0.49590    0.01330    0.22470    1.000
    O33      O        0.90900    0.63390    0.27290    1.000
    O34      O        0.90350    0.56980    0.31330    1.000
    P11      P        0.98370    0.69460    0.06560    1.000
    O35      O        0.94390    0.73120    0.95940    1.000
    O36      O        0.93060    0.73280    0.13510    1.000
    O37      O        0.91780    0.63240    0.07130    1.000
    P12      P        0.98720    0.82290    0.35010    1.000
    O38      O        0.03090    0.76310    0.38750    1.000
    O39      O        0.01080    0.82930    0.24040    1.000
    O40      O        0.06940    0.87290    0.41340    1.000
    Y3       Y        0.75292    0.06176    0.51071    1.000
    O41      O        0.90150    0.98451    0.57920    1.000
    O42      O        0.14880    0.92650    0.61460    1.000
    O43      O        0.41440    0.86430    0.53940    1.000
    O44      O        0.83640    0.55560    0.85710    1.000
    O45      O        0.09420    0.50529    0.91320    1.000
    O46      O        0.56390    0.61980    0.88390    1.000
    P13      P        0.01389    0.94127    0.64541    1.000
    O47      O        0.08340    0.96550    0.75730    1.000
    C25      C        0.91750    0.87260    0.65330    1.000
    H17      H        0.01950    0.98740    0.77100    1.000
    C26      C        0.76110    0.87000    0.62520    1.000
    C27      C        0.00330    0.82170    0.69270    1.000
    H18      H        0.70120    0.90450    0.59790    1.000
    C28      C        0.69190    0.81640    0.63740    1.000
    C29      C        0.93930    0.76720    0.70620    1.000
    H19      H        0.11060    0.82430    0.71140    1.000
    P14      P        0.49390    0.81541    0.62940    1.000
    C30      C        0.78000    0.76580    0.67680    1.000
    C31      C        0.03360    0.71340    0.74910    1.000
    O48      O        0.47170    0.82500    0.73270    1.000
    O49      O        0.44040    0.75170    0.59040    1.000
    H20      H        0.73120    0.72940    0.68410    1.000
    C32      C        0.19090    0.71420    0.76690    1.000
    C33      C        0.97390    0.66060    0.77360    1.000
    C34      C        0.28250    0.66560    0.80750    1.000
    H21      H        0.23540    0.74950    0.75040    1.000
    C35      C        0.06450    0.61060    0.81430    1.000
    H22      H        0.86800    0.65850    0.76240    1.000
    P15      P        0.47920    0.66805    0.81480    1.000
    C36      C        0.22020    0.61320    0.83290    1.000
    P16      P        0.97881    0.54185    0.83500    1.000
    O50      O        0.49240    0.65640    0.70600    1.000
    O51      O        0.53200    0.73290    0.84240    1.000
    H23      H        0.28330    0.57980    0.86260    1.000
    O52      O        0.92590    0.50910    0.72890    1.000
    H24      H        0.99590    0.48670    0.72470    1.000
    O53      O        0.40900    0.86610    0.77290    1.000
    O54      O        0.40350    0.93020    0.81330    1.000
    P17      P        0.48370    0.80540    0.56560    1.000
    O55      O        0.44390    0.76880    0.45940    1.000
    O56      O        0.43060    0.76720    0.63510    1.000
    O57      O        0.41780    0.86760    0.57130    1.000
    P18      P        0.48720    0.67710    0.85010    1.000
    O58      O        0.53090    0.73690    0.88750    1.000
    O59      O        0.51080    0.67070    0.74040    1.000
    O60      O        0.56940    0.62710    0.91340    1.000
    Y4       Y        0.74708    0.56176    0.98929    1.000
    O61      O        0.59850    0.48451    0.92080    1.000
    O62      O        0.35120    0.42650    0.88540    1.000
    O63      O        0.08560    0.36430    0.96060    1.000
    O64      O        0.66360    0.05560    0.64290    1.000
    O65      O        0.40580    0.00529    0.58680    1.000
    O66      O        0.93610    0.11980    0.61610    1.000
    P19      P        0.48611    0.44127    0.85459    1.000
    O67      O        0.41660    0.46550    0.74270    1.000
    C37      C        0.58250    0.37260    0.84670    1.000
    H25      H        0.48050    0.48740    0.72900    1.000
    C38      C        0.73890    0.37000    0.87480    1.000
    C39      C        0.49670    0.32170    0.80730    1.000
    H26      H        0.79880    0.40450    0.90210    1.000
    C40      C        0.80810    0.31640    0.86260    1.000
    C41      C        0.56070    0.26720    0.79380    1.000
    H27      H        0.38940    0.32430    0.78860    1.000
    P20      P        0.00610    0.31541    0.87060    1.000
    C42      C        0.72000    0.26580    0.82320    1.000
    C43      C        0.46640    0.21340    0.75090    1.000
    O68      O        0.02830    0.32500    0.76730    1.000
    O69      O        0.05960    0.25170    0.90960    1.000
    H28      H        0.76880    0.22940    0.81590    1.000
    C44      C        0.30910    0.21420    0.73310    1.000
    C45      C        0.52610    0.16060    0.72640    1.000
    C46      C        0.21750    0.16560    0.69250    1.000
    H29      H        0.26460    0.24950    0.74960    1.000
    C47      C        0.43550    0.11060    0.68570    1.000
    H30      H        0.63200    0.15850    0.73760    1.000
    P21      P        0.02080    0.16805    0.68520    1.000
    C48      C        0.27980    0.11320    0.66710    1.000
    P22      P        0.52119    0.04185    0.66500    1.000
    O70      O        0.00760    0.15640    0.79400    1.000
    O71      O        0.96800    0.23290    0.65760    1.000
    H31      H        0.21670    0.07980    0.63740    1.000
    O72      O        0.57410    0.00910    0.77110    1.000
    H32      H        0.50410    0.98670    0.77530    1.000
    O73      O        0.09100    0.36610    0.72710    1.000
    O74      O        0.09650    0.43020    0.68670    1.000
    P23      P        0.01630    0.30540    0.93440    1.000
    O75      O        0.05610    0.26880    0.04060    1.000
    O76      O        0.06940    0.26720    0.86490    1.000
    O77      O        0.08220    0.36760    0.92870    1.000
    P24      P        0.01280    0.17710    0.64990    1.000
    O78      O        0.96910    0.23690    0.61250    1.000
    O79      O        0.98920    0.17070    0.75960    1.000
    O80      O        0.93060    0.12710    0.58660    1.000
