# CIF file generated by openbabel 3.1.0, see https://openbabel.org
data_I
_chemical_name_common 'image0'
_cell_length_a 17.413
_cell_length_b 24.924
_cell_length_c 22.279
_cell_angle_alpha 90
_cell_angle_beta 90
_cell_angle_gamma 90
_space_group_name_H-M_alt 'P 1'
_space_group_name_Hall 'P 1'
loop_
    _symmetry_equiv_pos_as_xyz
    x,y,z
loop_
    _atom_site_label
    _atom_site_type_symbol
    _atom_site_fract_x
    _atom_site_fract_y
    _atom_site_fract_z
    _atom_site_occupancy
    C1       C        0.00340    0.51114    0.10464    1.000
    C2       C        0.93325    0.53048    0.08572    1.000
    H1       H        0.88880    0.51770    0.10390    1.000
    C3       C        0.92691    0.56721    0.04183    1.000
    C4       C        0.99225    0.58809    0.01611    1.000
    H2       H        0.98800    0.61450    0.98680    1.000
    C5       C        0.06417    0.57026    0.03338    1.000
    C6       C        0.06982    0.53171    0.07772    1.000
    H3       H        0.11780    0.51940    0.08970    1.000
    C7       C        0.01042    0.47002    0.15288    1.000
    C8       C        0.06081    0.42727    0.14761    1.000
    H4       H        0.09130    0.42460    0.11340    1.000
    C9       C        0.06721    0.38810    0.19214    1.000
    H5       H        0.10190    0.36000    0.18790    1.000
    C10      C        0.02134    0.39168    0.24253    1.000
    C11      C        0.96908    0.43574    0.24947    1.000
    H6       H        0.94010    0.43980    0.28420    1.000
    C12      C        0.96332    0.47236    0.20215    1.000
    H7       H        0.92630    0.49920    0.20410    1.000
    C13      C        0.02732    0.35069    0.29318    1.000
    C14      C        0.85003    0.58582    0.01945    1.000
    C15      C        0.78769    0.55139    0.02071    1.000
    H8       H        0.79370    0.51640    0.03450    1.000
    C16      C        0.71542    0.56909    0.00124    1.000
    H9       H        0.67370    0.54580    0.00300    1.000
    C17      C        0.70513    0.62058    0.97940    1.000
    C18      C        0.76708    0.65471    0.97856    1.000
    H10      H        0.76100    0.68940    0.96410    1.000
    C19      C        0.83734    0.63852    0.99861    1.000
    H11      H        0.87790    0.66280    0.99850    1.000
    C20      C        0.62655    0.63914    0.95890    1.000
    C21      C        0.13611    0.59122    0.00367    1.000
    C22      C        0.13598    0.61471    0.94745    1.000
    H12      H        0.09050    0.61530    0.92560    1.000
    C23      C        0.20009    0.63693    0.92308    1.000
    H13      H        0.19740    0.65180    0.88480    1.000
    C24      C        0.26886    0.63803    0.95360    1.000
    C25      C        0.27056    0.61412    0.01032    1.000
    H14      H        0.31660    0.61240    0.03140    1.000
    C26      C        0.20506    0.59319    0.03519    1.000
    H15      H        0.20680    0.57990    0.07420    1.000
    C27      C        0.33791    0.66379    0.92586    1.000
    Co1      Co       0.99745    0.32186    0.42149    1.000
    O1       O        0.06380    0.30960    0.28024    1.000
    O2       O        0.99614    0.36300    0.34122    1.000
    O3       O        0.57132    0.61230    0.96910    1.000
    O4       O        0.62218    0.68078    0.93260    1.000
    O5       O        0.32932    0.69167    0.88178    1.000
    O6       O        0.40187    0.65575    0.95347    1.000
    C28      C        0.49660    0.48886    0.60464    1.000
    C29      C        0.56675    0.46952    0.58572    1.000
    H16      H        0.61120    0.48230    0.60390    1.000
    C30      C        0.57309    0.43279    0.54183    1.000
    C31      C        0.50775    0.41191    0.51611    1.000
    H17      H        0.51200    0.38550    0.48680    1.000
    C32      C        0.43583    0.42974    0.53338    1.000
    C33      C        0.43018    0.46829    0.57772    1.000
    H18      H        0.38220    0.48060    0.58970    1.000
    C34      C        0.48958    0.52998    0.65288    1.000
    C35      C        0.43919    0.57273    0.64761    1.000
    H19      H        0.40870    0.57540    0.61340    1.000
    C36      C        0.43279    0.61190    0.69214    1.000
    H20      H        0.39810    0.64000    0.68790    1.000
    C37      C        0.47866    0.60832    0.74253    1.000
    C38      C        0.53092    0.56426    0.74947    1.000
    H21      H        0.55990    0.56020    0.78420    1.000
    C39      C        0.53668    0.52764    0.70215    1.000
    H22      H        0.57370    0.50080    0.70410    1.000
    C40      C        0.47268    0.64931    0.79318    1.000
    C41      C        0.64997    0.41418    0.51945    1.000
    C42      C        0.71231    0.44861    0.52071    1.000
    H23      H        0.70630    0.48360    0.53450    1.000
    C43      C        0.78458    0.43091    0.50124    1.000
    H24      H        0.82630    0.45420    0.50300    1.000
    C44      C        0.79487    0.37942    0.47940    1.000
    C45      C        0.73292    0.34529    0.47856    1.000
    H25      H        0.73900    0.31060    0.46410    1.000
    C46      C        0.66266    0.36148    0.49861    1.000
    H26      H        0.62210    0.33720    0.49850    1.000
    C47      C        0.87345    0.36086    0.45890    1.000
    C48      C        0.36389    0.40878    0.50367    1.000
    C49      C        0.36402    0.38529    0.44745    1.000
    H27      H        0.40950    0.38470    0.42560    1.000
    C50      C        0.29991    0.36307    0.42308    1.000
    H28      H        0.30260    0.34820    0.38480    1.000
    C51      C        0.23114    0.36197    0.45360    1.000
    C52      C        0.22944    0.38588    0.51032    1.000
    H29      H        0.18340    0.38760    0.53140    1.000
    C53      C        0.29494    0.40681    0.53519    1.000
    H30      H        0.29320    0.42010    0.57420    1.000
    C54      C        0.16209    0.33621    0.42586    1.000
    Co2      Co       0.50255    0.67814    0.92149    1.000
    O7       O        0.43620    0.69040    0.78024    1.000
    O8       O        0.50386    0.63700    0.84122    1.000
    O9       O        0.92868    0.38770    0.46910    1.000
    O10      O        0.87782    0.31922    0.43260    1.000
    O11      O        0.17068    0.30833    0.38178    1.000
    O12      O        0.09813    0.34425    0.45347    1.000
    C55      C        0.00340    0.98886    0.10464    1.000
    C56      C        0.93325    0.96952    0.08572    1.000
    H31      H        0.88880    0.98230    0.10390    1.000
    C57      C        0.92691    0.93279    0.04183    1.000
    C58      C        0.99225    0.91191    0.01611    1.000
    H32      H        0.98800    0.88550    0.98680    1.000
    C59      C        0.06417    0.92974    0.03338    1.000
    C60      C        0.06982    0.96829    0.07772    1.000
    H33      H        0.11780    0.98060    0.08970    1.000
    C61      C        0.01042    0.02998    0.15288    1.000
    C62      C        0.06081    0.07273    0.14761    1.000
    H34      H        0.09130    0.07540    0.11340    1.000
    C63      C        0.06721    0.11190    0.19214    1.000
    H35      H        0.10190    0.14000    0.18790    1.000
    C64      C        0.02134    0.10832    0.24253    1.000
    C65      C        0.96908    0.06426    0.24947    1.000
    H36      H        0.94010    0.06020    0.28420    1.000
    C66      C        0.96332    0.02764    0.20215    1.000
    H37      H        0.92630    0.00080    0.20410    1.000
    C67      C        0.02732    0.14931    0.29318    1.000
    C68      C        0.85003    0.91418    0.01945    1.000
    C69      C        0.78769    0.94861    0.02071    1.000
    H38      H        0.79370    0.98360    0.03450    1.000
    C70      C        0.71542    0.93091    0.00124    1.000
    H39      H        0.67370    0.95420    0.00300    1.000
    C71      C        0.70513    0.87942    0.97940    1.000
    C72      C        0.76708    0.84529    0.97856    1.000
    H40      H        0.76100    0.81060    0.96410    1.000
    C73      C        0.83734    0.86148    0.99861    1.000
    H41      H        0.87790    0.83720    0.99850    1.000
    C74      C        0.62655    0.86086    0.95890    1.000
    C75      C        0.13611    0.90878    0.00367    1.000
    C76      C        0.13598    0.88529    0.94745    1.000
    H42      H        0.09050    0.88470    0.92560    1.000
    C77      C        0.20009    0.86307    0.92308    1.000
    H43      H        0.19740    0.84820    0.88480    1.000
    C78      C        0.26886    0.86197    0.95360    1.000
    C79      C        0.27056    0.88588    0.01032    1.000
    H44      H        0.31660    0.88760    0.03140    1.000
    C80      C        0.20506    0.90681    0.03519    1.000
    H45      H        0.20680    0.92010    0.07420    1.000
    C81      C        0.33791    0.83621    0.92586    1.000
    Co3      Co       0.99745    0.17814    0.42149    1.000
    O13      O        0.06380    0.19040    0.28024    1.000
    O14      O        0.99614    0.13700    0.34122    1.000
    O15      O        0.57132    0.88770    0.96910    1.000
    O16      O        0.62218    0.81922    0.93260    1.000
    O17      O        0.32932    0.80833    0.88178    1.000
    O18      O        0.40187    0.84425    0.95347    1.000
    C82      C        0.49660    0.01114    0.60464    1.000
    C83      C        0.56675    0.03048    0.58572    1.000
    H46      H        0.61120    0.01770    0.60390    1.000
    C84      C        0.57309    0.06721    0.54183    1.000
    C85      C        0.50775    0.08809    0.51611    1.000
    H47      H        0.51200    0.11450    0.48680    1.000
    C86      C        0.43583    0.07026    0.53338    1.000
    C87      C        0.43018    0.03171    0.57772    1.000
    H48      H        0.38220    0.01940    0.58970    1.000
    C88      C        0.48958    0.97002    0.65288    1.000
    C89      C        0.43919    0.92727    0.64761    1.000
    H49      H        0.40870    0.92460    0.61340    1.000
    C90      C        0.43279    0.88810    0.69214    1.000
    H50      H        0.39810    0.86000    0.68790    1.000
    C91      C        0.47866    0.89168    0.74253    1.000
    C92      C        0.53092    0.93574    0.74947    1.000
    H51      H        0.55990    0.93980    0.78420    1.000
    C93      C        0.53668    0.97236    0.70215    1.000
    H52      H        0.57370    0.99920    0.70410    1.000
    C94      C        0.47268    0.85069    0.79318    1.000
    C95      C        0.64997    0.08582    0.51945    1.000
    C96      C        0.71231    0.05139    0.52071    1.000
    H53      H        0.70630    0.01640    0.53450    1.000
    C97      C        0.78458    0.06909    0.50124    1.000
    H54      H        0.82630    0.04580    0.50300    1.000
    C98      C        0.79487    0.12058    0.47940    1.000
    C99      C        0.73292    0.15471    0.47856    1.000
    H55      H        0.73900    0.18940    0.46410    1.000
    C100     C        0.66266    0.13852    0.49861    1.000
    H56      H        0.62210    0.16280    0.49850    1.000
    C101     C        0.87345    0.13914    0.45890    1.000
    C102     C        0.36389    0.09122    0.50367    1.000
    C103     C        0.36402    0.11471    0.44745    1.000
    H57      H        0.40950    0.11530    0.42560    1.000
    C104     C        0.29991    0.13693    0.42308    1.000
    H58      H        0.30260    0.15180    0.38480    1.000
    C105     C        0.23114    0.13803    0.45360    1.000
    C106     C        0.22944    0.11412    0.51032    1.000
    H59      H        0.18340    0.11240    0.53140    1.000
    C107     C        0.29494    0.09319    0.53519    1.000
    H60      H        0.29320    0.07990    0.57420    1.000
    C108     C        0.16209    0.16379    0.42586    1.000
    Co4      Co       0.50255    0.82186    0.92149    1.000
    O19      O        0.43620    0.80960    0.78024    1.000
    O20      O        0.50386    0.86300    0.84122    1.000
    O21      O        0.92868    0.11230    0.46910    1.000
    O22      O        0.87782    0.18078    0.43260    1.000
    O23      O        0.17068    0.19167    0.38178    1.000
    O24      O        0.09813    0.15575    0.45347    1.000
    Co5      Co       0.11314    0.25000    0.33366    1.000
    O25      O        0.01109    0.25000    0.38421    1.000
    Co6      Co       0.38686    0.75000    0.83366    1.000
    O26      O        0.48891    0.75000    0.88421    1.000
    C109     C        0.99660    0.01114    0.89536    1.000
    C110     C        0.06675    0.03048    0.91428    1.000
    H61      H        0.11120    0.01770    0.89610    1.000
    C111     C        0.07309    0.06721    0.95817    1.000
    C112     C        0.00775    0.08809    0.98389    1.000
    H62      H        0.01200    0.11450    0.01320    1.000
    C113     C        0.93583    0.07026    0.96662    1.000
    C114     C        0.93018    0.03171    0.92228    1.000
    H63      H        0.88220    0.01940    0.91030    1.000
    C115     C        0.98958    0.97002    0.84712    1.000
    C116     C        0.93919    0.92727    0.85239    1.000
    H64      H        0.90870    0.92460    0.88660    1.000
    C117     C        0.93279    0.88810    0.80786    1.000
    H65      H        0.89810    0.86000    0.81210    1.000
    C118     C        0.97866    0.89168    0.75747    1.000
    C119     C        0.03092    0.93574    0.75053    1.000
    H66      H        0.05990    0.93980    0.71580    1.000
    C120     C        0.03668    0.97236    0.79785    1.000
    H67      H        0.07370    0.99920    0.79590    1.000
    C121     C        0.97268    0.85069    0.70682    1.000
    C122     C        0.14997    0.08582    0.98055    1.000
    C123     C        0.21231    0.05139    0.97929    1.000
    H68      H        0.20630    0.01640    0.96550    1.000
    C124     C        0.28458    0.06909    0.99876    1.000
    H69      H        0.32630    0.04580    0.99700    1.000
    C125     C        0.29487    0.12058    0.02060    1.000
    C126     C        0.23292    0.15471    0.02144    1.000
    H70      H        0.23900    0.18940    0.03590    1.000
    C127     C        0.16266    0.13852    0.00139    1.000
    H71      H        0.12210    0.16280    0.00150    1.000
    C128     C        0.37345    0.13914    0.04110    1.000
    C129     C        0.86389    0.09122    0.99633    1.000
    C130     C        0.86402    0.11471    0.05255    1.000
    H72      H        0.90950    0.11530    0.07440    1.000
    C131     C        0.79991    0.13693    0.07692    1.000
    H73      H        0.80260    0.15180    0.11520    1.000
    C132     C        0.73114    0.13803    0.04640    1.000
    C133     C        0.72944    0.11412    0.98968    1.000
    H74      H        0.68340    0.11240    0.96860    1.000
    C134     C        0.79494    0.09319    0.96481    1.000
    H75      H        0.79320    0.07990    0.92580    1.000
    C135     C        0.66209    0.16379    0.07414    1.000
    Co7      Co       0.00255    0.82186    0.57851    1.000
    O27      O        0.93620    0.80960    0.71976    1.000
    O28      O        0.00386    0.86300    0.65878    1.000
    O29      O        0.42868    0.11230    0.03090    1.000
    O30      O        0.37782    0.18078    0.06740    1.000
    O31      O        0.67068    0.19167    0.11822    1.000
    O32      O        0.59813    0.15575    0.04653    1.000
    C136     C        0.50340    0.98886    0.39536    1.000
    C137     C        0.43325    0.96952    0.41428    1.000
    H76      H        0.38880    0.98230    0.39610    1.000
    C138     C        0.42691    0.93279    0.45817    1.000
    C139     C        0.49225    0.91191    0.48389    1.000
    H77      H        0.48800    0.88550    0.51320    1.000
    C140     C        0.56417    0.92974    0.46662    1.000
    C141     C        0.56982    0.96829    0.42228    1.000
    H78      H        0.61780    0.98060    0.41030    1.000
    C142     C        0.51042    0.02998    0.34712    1.000
    C143     C        0.56081    0.07273    0.35239    1.000
    H79      H        0.59130    0.07540    0.38660    1.000
    C144     C        0.56721    0.11190    0.30786    1.000
    H80      H        0.60190    0.14000    0.31210    1.000
    C145     C        0.52134    0.10832    0.25747    1.000
    C146     C        0.46908    0.06426    0.25053    1.000
    H81      H        0.44010    0.06020    0.21580    1.000
    C147     C        0.46332    0.02764    0.29785    1.000
    H82      H        0.42630    0.00080    0.29590    1.000
    C148     C        0.52732    0.14931    0.20682    1.000
    C149     C        0.35003    0.91418    0.48055    1.000
    C150     C        0.28769    0.94861    0.47929    1.000
    H83      H        0.29370    0.98360    0.46550    1.000
    C151     C        0.21542    0.93091    0.49876    1.000
    H84      H        0.17370    0.95420    0.49700    1.000
    C152     C        0.20513    0.87942    0.52060    1.000
    C153     C        0.26708    0.84529    0.52144    1.000
    H85      H        0.26100    0.81060    0.53590    1.000
    C154     C        0.33734    0.86148    0.50139    1.000
    H86      H        0.37790    0.83720    0.50150    1.000
    C155     C        0.12655    0.86086    0.54110    1.000
    C156     C        0.63611    0.90878    0.49633    1.000
    C157     C        0.63598    0.88529    0.55255    1.000
    H87      H        0.59050    0.88470    0.57440    1.000
    C158     C        0.70009    0.86307    0.57692    1.000
    H88      H        0.69740    0.84820    0.61520    1.000
    C159     C        0.76886    0.86197    0.54640    1.000
    C160     C        0.77056    0.88588    0.48968    1.000
    H89      H        0.81660    0.88760    0.46860    1.000
    C161     C        0.70506    0.90681    0.46481    1.000
    H90      H        0.70680    0.92010    0.42580    1.000
    C162     C        0.83791    0.83621    0.57414    1.000
    Co8      Co       0.49745    0.17814    0.07851    1.000
    O33      O        0.56380    0.19040    0.21976    1.000
    O34      O        0.49614    0.13700    0.15878    1.000
    O35      O        0.07132    0.88770    0.53090    1.000
    O36      O        0.12218    0.81922    0.56740    1.000
    O37      O        0.82932    0.80833    0.61822    1.000
    O38      O        0.90187    0.84425    0.54653    1.000
    C163     C        0.99660    0.48886    0.89536    1.000
    C164     C        0.06675    0.46952    0.91428    1.000
    H91      H        0.11120    0.48230    0.89610    1.000
    C165     C        0.07309    0.43279    0.95817    1.000
    C166     C        0.00775    0.41191    0.98389    1.000
    H92      H        0.01200    0.38550    0.01320    1.000
    C167     C        0.93583    0.42974    0.96662    1.000
    C168     C        0.93018    0.46829    0.92228    1.000
    H93      H        0.88220    0.48060    0.91030    1.000
    C169     C        0.98958    0.52998    0.84712    1.000
    C170     C        0.93919    0.57273    0.85239    1.000
    H94      H        0.90870    0.57540    0.88660    1.000
    C171     C        0.93279    0.61190    0.80786    1.000
    H95      H        0.89810    0.64000    0.81210    1.000
    C172     C        0.97866    0.60832    0.75747    1.000
    C173     C        0.03092    0.56426    0.75053    1.000
    H96      H        0.05990    0.56020    0.71580    1.000
    C174     C        0.03668    0.52764    0.79785    1.000
    H97      H        0.07370    0.50080    0.79590    1.000
    C175     C        0.97268    0.64931    0.70682    1.000
    C176     C        0.14997    0.41418    0.98055    1.000
    C177     C        0.21231    0.44861    0.97929    1.000
    H98      H        0.20630    0.48360    0.96550    1.000
    C178     C        0.28458    0.43091    0.99876    1.000
    H99      H        0.32630    0.45420    0.99700    1.000
    C179     C        0.29487    0.37942    0.02060    1.000
    C180     C        0.23292    0.34529    0.02144    1.000
    H100     H        0.23900    0.31060    0.03590    1.000
    C181     C        0.16266    0.36148    0.00139    1.000
    H101     H        0.12210    0.33720    0.00150    1.000
    C182     C        0.37345    0.36086    0.04110    1.000
    C183     C        0.86389    0.40878    0.99633    1.000
    C184     C        0.86402    0.38529    0.05255    1.000
    H102     H        0.90950    0.38470    0.07440    1.000
    C185     C        0.79991    0.36307    0.07692    1.000
    H103     H        0.80260    0.34820    0.11520    1.000
    C186     C        0.73114    0.36197    0.04640    1.000
    C187     C        0.72944    0.38588    0.98968    1.000
    H104     H        0.68340    0.38760    0.96860    1.000
    C188     C        0.79494    0.40681    0.96481    1.000
    H105     H        0.79320    0.42010    0.92580    1.000
    C189     C        0.66209    0.33621    0.07414    1.000
    Co9      Co       0.00255    0.67814    0.57851    1.000
    O39      O        0.93620    0.69040    0.71976    1.000
    O40      O        0.00386    0.63700    0.65878    1.000
    O41      O        0.42868    0.38770    0.03090    1.000
    O42      O        0.37782    0.31922    0.06740    1.000
    O43      O        0.67068    0.30833    0.11822    1.000
    O44      O        0.59813    0.34425    0.04653    1.000
    C190     C        0.50340    0.51114    0.39536    1.000
    C191     C        0.43325    0.53048    0.41428    1.000
    H106     H        0.38880    0.51770    0.39610    1.000
    C192     C        0.42691    0.56721    0.45817    1.000
    C193     C        0.49225    0.58809    0.48389    1.000
    H107     H        0.48800    0.61450    0.51320    1.000
    C194     C        0.56417    0.57026    0.46662    1.000
    C195     C        0.56982    0.53171    0.42228    1.000
    H108     H        0.61780    0.51940    0.41030    1.000
    C196     C        0.51042    0.47002    0.34712    1.000
    C197     C        0.56081    0.42727    0.35239    1.000
    H109     H        0.59130    0.42460    0.38660    1.000
    C198     C        0.56721    0.38810    0.30786    1.000
    H110     H        0.60190    0.36000    0.31210    1.000
    C199     C        0.52134    0.39168    0.25747    1.000
    C200     C        0.46908    0.43574    0.25053    1.000
    H111     H        0.44010    0.43980    0.21580    1.000
    C201     C        0.46332    0.47236    0.29785    1.000
    H112     H        0.42630    0.49920    0.29590    1.000
    C202     C        0.52732    0.35069    0.20682    1.000
    C203     C        0.35003    0.58582    0.48055    1.000
    C204     C        0.28769    0.55139    0.47929    1.000
    H113     H        0.29370    0.51640    0.46550    1.000
    C205     C        0.21542    0.56909    0.49876    1.000
    H114     H        0.17370    0.54580    0.49700    1.000
    C206     C        0.20513    0.62058    0.52060    1.000
    C207     C        0.26708    0.65471    0.52144    1.000
    H115     H        0.26100    0.68940    0.53590    1.000
    C208     C        0.33734    0.63852    0.50139    1.000
    H116     H        0.37790    0.66280    0.50150    1.000
    C209     C        0.12655    0.63914    0.54110    1.000
    C210     C        0.63611    0.59122    0.49633    1.000
    C211     C        0.63598    0.61471    0.55255    1.000
    H117     H        0.59050    0.61530    0.57440    1.000
    C212     C        0.70009    0.63693    0.57692    1.000
    H118     H        0.69740    0.65180    0.61520    1.000
    C213     C        0.76886    0.63803    0.54640    1.000
    C214     C        0.77056    0.61412    0.48968    1.000
    H119     H        0.81660    0.61240    0.46860    1.000
    C215     C        0.70506    0.59319    0.46481    1.000
    H120     H        0.70680    0.57990    0.42580    1.000
    C216     C        0.83791    0.66379    0.57414    1.000
    Co10     Co       0.49745    0.32186    0.07851    1.000
    O45      O        0.56380    0.30960    0.21976    1.000
    O46      O        0.49614    0.36300    0.15878    1.000
    O47      O        0.07132    0.61230    0.53090    1.000
    O48      O        0.12218    0.68078    0.56740    1.000
    O49      O        0.82932    0.69167    0.61822    1.000
    O50      O        0.90187    0.65575    0.54653    1.000
    Co11     Co       0.88686    0.75000    0.66634    1.000
    O51      O        0.98891    0.75000    0.61579    1.000
    Co12     Co       0.61314    0.25000    0.16634    1.000
    O52      O        0.51109    0.25000    0.11579    1.000
