# CIF file generated by openbabel 3.1.0, see https://openbabel.org
data_I
_chemical_name_common 'image0'
_cell_length_a 40.2669
_cell_length_b 13.9032
_cell_length_c 25.9948
_cell_angle_alpha 90
_cell_angle_beta 104.201
_cell_angle_gamma 90
_space_group_name_H-M_alt 'P 1'
_space_group_name_Hall 'P 1'
loop_
    _symmetry_equiv_pos_as_xyz
    x,y,z
loop_
    _atom_site_label
    _atom_site_type_symbol
    _atom_site_fract_x
    _atom_site_fract_y
    _atom_site_fract_z
    _atom_site_occupancy
    Co1      Co       0.79425    0.52614    0.53803    1.000
    O1       O        0.30269    0.17860    0.51551    1.000
    O2       O        0.72977    0.37814    0.96317    1.000
    O3       O        0.33858    0.11303    0.58444    1.000
    O4       O        0.74125    0.69880    0.57148    1.000
    O5       O        0.31042    0.88653    0.57172    1.000
    O6       O        0.75969    0.51221    0.96760    1.000
    O7       O        0.76347    0.54981    0.59016    1.000
    O8       O        0.33936    0.93775    0.51564    1.000
    N1       N        0.40933    0.52539    0.58247    1.000
    N2       N        0.65931    0.55971    0.73845    1.000
    C1       C        0.71438    0.48711    0.89140    1.000
    C2       C        0.36340    0.42854    0.52971    1.000
    H1       H        0.35810    0.47940    0.50460    1.000
    C3       C        0.39078    0.61373    0.57358    1.000
    C4       C        0.39051    0.43767    0.57378    1.000
    C5       C        0.44487    0.52641    0.60598    1.000
    C6       C        0.73661    0.45703    0.94541    1.000
    C7       C        0.67599    0.53526    0.79084    1.000
    C8       C        0.36176    0.62470    0.59143    1.000
    H2       H        0.35420    0.57380    0.61010    1.000
    C9       C        0.72132    0.60227    0.63188    1.000
    C10      C        0.35411    0.78376    0.55620    1.000
    C11      C        0.72876    0.53046    0.67006    1.000
    H3       H        0.74830    0.49100    0.67240    1.000
    C12      C        0.34390    0.34533    0.52208    1.000
    H4       H        0.32520    0.33930    0.49180    1.000
    C13      C        0.68005    0.57313    0.70184    1.000
    C14      C        0.37967    0.27984    0.60197    1.000
    H5       H        0.38590    0.22810    0.62630    1.000
    C15      C        0.62362    0.54343    0.71841    1.000
    C16      C        0.68746    0.42931    0.86566    1.000
    H6       H        0.68220    0.37250    0.88240    1.000
    C17      C        0.38373    0.77277    0.53724    1.000
    H7       H        0.39100    0.82350    0.51810    1.000
    C18      C        0.45910    0.59660    0.64181    1.000
    H8       H        0.44500    0.64520    0.65100    1.000
    C19      C        0.72150    0.57039    0.86795    1.000
    H9       H        0.73970    0.61050    0.88600    1.000
    C20      C        0.70853    0.51549    0.70426    1.000
    H10      H        0.71390    0.46550    0.72980    1.000
    C21      C        0.35160    0.27015    0.55888    1.000
    C22      C        0.74355    0.61882    0.59426    1.000
    C23      C        0.70234    0.59628    0.81822    1.000
    H11      H        0.70690    0.65500    0.80260    1.000
    C24      C        0.49429    0.59656    0.66469    1.000
    H12      H        0.50370    0.64620    0.68900    1.000
    C25      C        0.39875    0.36371    0.61003    1.000
    H13      H        0.41740    0.37030    0.64030    1.000
    C26      C        0.33013    0.18362    0.55290    1.000
    C27      C        0.34346    0.70994    0.58232    1.000
    H14      H        0.32320    0.71680    0.59450    1.000
    C28      C        0.46592    0.45594    0.59331    1.000
    H15      H        0.45640    0.40690    0.56860    1.000
    C29      C        0.67245    0.64481    0.66382    1.000
    H16      H        0.65280    0.68400    0.66130    1.000
    C30      C        0.61098    0.50600    0.66855    1.000
    H17      H        0.62630    0.48530    0.64830    1.000
    C31      C        0.40211    0.68945    0.54629    1.000
    H18      H        0.42240    0.68260    0.53430    1.000
    C32      C        0.60142    0.57097    0.74917    1.000
    H19      H        0.61000    0.59440    0.78430    1.000
    C33      C        0.69301    0.65957    0.63005    1.000
    H20      H        0.68780    0.71020    0.60480    1.000
    C34      C        0.66802    0.45426    0.81512    1.000
    H21      H        0.64930    0.41500    0.79770    1.000
    C35      C        0.51553    0.52785    0.65343    1.000
    C36      C        0.57546    0.49820    0.64738    1.000
    H22      H        0.56680    0.47250    0.61280    1.000
    C37      C        0.33340    0.87492    0.54693    1.000
    C38      C        0.50056    0.45687    0.61650    1.000
    H23      H        0.51470    0.40830    0.60730    1.000
    C39      C        0.55290    0.52834    0.67750    1.000
    C40      C        0.56636    0.56337    0.72723    1.000
    H24      H        0.55110    0.58350    0.74780    1.000
    Co2      Co       0.29425    0.02614    0.53803    1.000
    O9       O        0.80269    0.67860    0.51551    1.000
    O10      O        0.22977    0.87814    0.96317    1.000
    O11      O        0.83858    0.61303    0.58444    1.000
    O12      O        0.24125    0.19880    0.57148    1.000
    O13      O        0.81042    0.38653    0.57172    1.000
    O14      O        0.25969    0.01221    0.96760    1.000
    O15      O        0.26347    0.04981    0.59016    1.000
    O16      O        0.83936    0.43775    0.51564    1.000
    N3       N        0.90933    0.02539    0.58247    1.000
    N4       N        0.15931    0.05971    0.73845    1.000
    C41      C        0.21438    0.98711    0.89140    1.000
    C42      C        0.86340    0.92854    0.52971    1.000
    H25      H        0.85810    0.97940    0.50460    1.000
    C43      C        0.89078    0.11373    0.57358    1.000
    C44      C        0.89051    0.93767    0.57378    1.000
    C45      C        0.94487    0.02641    0.60598    1.000
    C46      C        0.23661    0.95703    0.94541    1.000
    C47      C        0.17599    0.03526    0.79084    1.000
    C48      C        0.86176    0.12470    0.59143    1.000
    H26      H        0.85420    0.07380    0.61010    1.000
    C49      C        0.22132    0.10227    0.63188    1.000
    C50      C        0.85411    0.28376    0.55620    1.000
    C51      C        0.22876    0.03046    0.67006    1.000
    H27      H        0.24830    0.99100    0.67240    1.000
    C52      C        0.84390    0.84533    0.52208    1.000
    H28      H        0.82520    0.83930    0.49180    1.000
    C53      C        0.18005    0.07313    0.70184    1.000
    C54      C        0.87967    0.77984    0.60197    1.000
    H29      H        0.88590    0.72810    0.62630    1.000
    C55      C        0.12362    0.04343    0.71841    1.000
    C56      C        0.18746    0.92931    0.86566    1.000
    H30      H        0.18220    0.87250    0.88240    1.000
    C57      C        0.88373    0.27277    0.53724    1.000
    H31      H        0.89100    0.32350    0.51810    1.000
    C58      C        0.95910    0.09660    0.64181    1.000
    H32      H        0.94500    0.14520    0.65100    1.000
    C59      C        0.22150    0.07039    0.86795    1.000
    H33      H        0.23970    0.11050    0.88600    1.000
    C60      C        0.20853    0.01549    0.70426    1.000
    H34      H        0.21390    0.96550    0.72980    1.000
    C61      C        0.85160    0.77015    0.55888    1.000
    C62      C        0.24355    0.11882    0.59426    1.000
    C63      C        0.20234    0.09628    0.81822    1.000
    H35      H        0.20690    0.15500    0.80260    1.000
    C64      C        0.99429    0.09656    0.66469    1.000
    H36      H        0.00370    0.14620    0.68900    1.000
    C65      C        0.89875    0.86371    0.61003    1.000
    H37      H        0.91740    0.87030    0.64030    1.000
    C66      C        0.83013    0.68362    0.55290    1.000
    C67      C        0.84346    0.20994    0.58232    1.000
    H38      H        0.82320    0.21680    0.59450    1.000
    C68      C        0.96592    0.95594    0.59331    1.000
    H39      H        0.95640    0.90690    0.56860    1.000
    C69      C        0.17245    0.14481    0.66382    1.000
    H40      H        0.15280    0.18400    0.66130    1.000
    C70      C        0.11098    0.00600    0.66855    1.000
    H41      H        0.12630    0.98530    0.64830    1.000
    C71      C        0.90211    0.18945    0.54629    1.000
    H42      H        0.92240    0.18260    0.53430    1.000
    C72      C        0.10142    0.07097    0.74917    1.000
    H43      H        0.11000    0.09440    0.78430    1.000
    C73      C        0.19301    0.15957    0.63005    1.000
    H44      H        0.18780    0.21020    0.60480    1.000
    C74      C        0.16802    0.95426    0.81512    1.000
    H45      H        0.14930    0.91500    0.79770    1.000
    C75      C        0.01553    0.02785    0.65343    1.000
    C76      C        0.07546    0.99820    0.64738    1.000
    H46      H        0.06680    0.97250    0.61280    1.000
    C77      C        0.83340    0.37492    0.54693    1.000
    C78      C        0.00056    0.95687    0.61650    1.000
    H47      H        0.01470    0.90830    0.60730    1.000
    C79      C        0.05290    0.02834    0.67750    1.000
    C80      C        0.06636    0.06337    0.72723    1.000
    H48      H        0.05110    0.08350    0.74780    1.000
    Co3      Co       0.20575    0.52614    0.96197    1.000
    O17      O        0.69731    0.17860    0.98449    1.000
    O18      O        0.27023    0.37814    0.53683    1.000
    O19      O        0.66142    0.11303    0.91556    1.000
    O20      O        0.25875    0.69880    0.92852    1.000
    O21      O        0.68958    0.88653    0.92828    1.000
    O22      O        0.24031    0.51221    0.53240    1.000
    O23      O        0.23653    0.54981    0.90984    1.000
    O24      O        0.66064    0.93775    0.98436    1.000
    N5       N        0.59067    0.52539    0.91753    1.000
    N6       N        0.34069    0.55971    0.76155    1.000
    C81      C        0.28562    0.48711    0.60860    1.000
    C82      C        0.63660    0.42854    0.97029    1.000
    H49      H        0.64190    0.47940    0.99540    1.000
    C83      C        0.60922    0.61373    0.92642    1.000
    C84      C        0.60949    0.43767    0.92622    1.000
    C85      C        0.55513    0.52641    0.89402    1.000
    C86      C        0.26339    0.45703    0.55459    1.000
    C87      C        0.32401    0.53526    0.70916    1.000
    C88      C        0.63824    0.62470    0.90857    1.000
    H50      H        0.64580    0.57380    0.88990    1.000
    C89      C        0.27868    0.60227    0.86812    1.000
    C90      C        0.64589    0.78376    0.94380    1.000
    C91      C        0.27124    0.53046    0.82994    1.000
    H51      H        0.25170    0.49100    0.82760    1.000
    C92      C        0.65610    0.34533    0.97792    1.000
    H52      H        0.67480    0.33930    0.00820    1.000
    C93      C        0.31995    0.57313    0.79816    1.000
    C94      C        0.62033    0.27984    0.89803    1.000
    H53      H        0.61410    0.22810    0.87370    1.000
    C95      C        0.37638    0.54343    0.78159    1.000
    C96      C        0.31254    0.42931    0.63434    1.000
    H54      H        0.31780    0.37250    0.61760    1.000
    C97      C        0.61627    0.77277    0.96276    1.000
    H55      H        0.60900    0.82350    0.98190    1.000
    C98      C        0.54090    0.59660    0.85819    1.000
    H56      H        0.55500    0.64520    0.84900    1.000
    C99      C        0.27850    0.57039    0.63205    1.000
    H57      H        0.26030    0.61050    0.61400    1.000
    C100     C        0.29147    0.51549    0.79574    1.000
    H58      H        0.28610    0.46550    0.77020    1.000
    C101     C        0.64840    0.27015    0.94112    1.000
    C102     C        0.25645    0.61882    0.90574    1.000
    C103     C        0.29766    0.59628    0.68178    1.000
    H59      H        0.29310    0.65500    0.69740    1.000
    C104     C        0.50571    0.59656    0.83531    1.000
    H60      H        0.49630    0.64620    0.81100    1.000
    C105     C        0.60125    0.36371    0.88997    1.000
    H61      H        0.58260    0.37030    0.85970    1.000
    C106     C        0.66987    0.18362    0.94710    1.000
    C107     C        0.65654    0.70994    0.91768    1.000
    H62      H        0.67680    0.71680    0.90550    1.000
    C108     C        0.53408    0.45594    0.90669    1.000
    H63      H        0.54360    0.40690    0.93140    1.000
    C109     C        0.32755    0.64481    0.83618    1.000
    H64      H        0.34720    0.68400    0.83870    1.000
    C110     C        0.38902    0.50600    0.83145    1.000
    H65      H        0.37370    0.48530    0.85170    1.000
    C111     C        0.59789    0.68945    0.95371    1.000
    H66      H        0.57760    0.68260    0.96570    1.000
    C112     C        0.39858    0.57097    0.75083    1.000
    H67      H        0.39000    0.59440    0.71570    1.000
    C113     C        0.30699    0.65957    0.86995    1.000
    H68      H        0.31220    0.71020    0.89520    1.000
    C114     C        0.33198    0.45426    0.68488    1.000
    H69      H        0.35070    0.41500    0.70230    1.000
    C115     C        0.48447    0.52785    0.84657    1.000
    C116     C        0.42454    0.49820    0.85262    1.000
    H70      H        0.43320    0.47250    0.88720    1.000
    C117     C        0.66660    0.87492    0.95307    1.000
    C118     C        0.49944    0.45687    0.88350    1.000
    H71      H        0.48530    0.40830    0.89270    1.000
    C119     C        0.44710    0.52834    0.82250    1.000
    C120     C        0.43364    0.56337    0.77277    1.000
    H72      H        0.44890    0.58350    0.75220    1.000
    Co4      Co       0.70575    0.02614    0.96197    1.000
    O25      O        0.19731    0.67860    0.98449    1.000
    O26      O        0.77023    0.87814    0.53683    1.000
    O27      O        0.16142    0.61303    0.91556    1.000
    O28      O        0.75875    0.19880    0.92852    1.000
    O29      O        0.18958    0.38653    0.92828    1.000
    O30      O        0.74031    0.01221    0.53240    1.000
    O31      O        0.73653    0.04981    0.90984    1.000
    O32      O        0.16064    0.43775    0.98436    1.000
    N7       N        0.09067    0.02539    0.91753    1.000
    N8       N        0.84069    0.05971    0.76155    1.000
    C121     C        0.78562    0.98711    0.60860    1.000
    C122     C        0.13660    0.92854    0.97029    1.000
    H73      H        0.14190    0.97940    0.99540    1.000
    C123     C        0.10922    0.11373    0.92642    1.000
    C124     C        0.10949    0.93767    0.92622    1.000
    C125     C        0.05513    0.02641    0.89402    1.000
    C126     C        0.76339    0.95703    0.55459    1.000
    C127     C        0.82401    0.03526    0.70916    1.000
    C128     C        0.13824    0.12470    0.90857    1.000
    H74      H        0.14580    0.07380    0.88990    1.000
    C129     C        0.77868    0.10227    0.86812    1.000
    C130     C        0.14589    0.28376    0.94380    1.000
    C131     C        0.77124    0.03046    0.82994    1.000
    H75      H        0.75170    0.99100    0.82760    1.000
    C132     C        0.15610    0.84533    0.97792    1.000
    H76      H        0.17480    0.83930    0.00820    1.000
    C133     C        0.81995    0.07313    0.79816    1.000
    C134     C        0.12033    0.77984    0.89803    1.000
    H77      H        0.11410    0.72810    0.87370    1.000
    C135     C        0.87638    0.04343    0.78159    1.000
    C136     C        0.81254    0.92931    0.63434    1.000
    H78      H        0.81780    0.87250    0.61760    1.000
    C137     C        0.11627    0.27277    0.96276    1.000
    H79      H        0.10900    0.32350    0.98190    1.000
    C138     C        0.04090    0.09660    0.85819    1.000
    H80      H        0.05500    0.14520    0.84900    1.000
    C139     C        0.77850    0.07039    0.63205    1.000
    H81      H        0.76030    0.11050    0.61400    1.000
    C140     C        0.79147    0.01549    0.79574    1.000
    H82      H        0.78610    0.96550    0.77020    1.000
    C141     C        0.14840    0.77015    0.94112    1.000
    C142     C        0.75645    0.11882    0.90574    1.000
    C143     C        0.79766    0.09628    0.68178    1.000
    H83      H        0.79310    0.15500    0.69740    1.000
    C144     C        0.00571    0.09656    0.83531    1.000
    H84      H        0.99630    0.14620    0.81100    1.000
    C145     C        0.10125    0.86371    0.88997    1.000
    H85      H        0.08260    0.87030    0.85970    1.000
    C146     C        0.16987    0.68362    0.94710    1.000
    C147     C        0.15654    0.20994    0.91768    1.000
    H86      H        0.17680    0.21680    0.90550    1.000
    C148     C        0.03408    0.95594    0.90669    1.000
    H87      H        0.04360    0.90690    0.93140    1.000
    C149     C        0.82755    0.14481    0.83618    1.000
    H88      H        0.84720    0.18400    0.83870    1.000
    C150     C        0.88902    0.00600    0.83145    1.000
    H89      H        0.87370    0.98530    0.85170    1.000
    C151     C        0.09789    0.18945    0.95371    1.000
    H90      H        0.07760    0.18260    0.96570    1.000
    C152     C        0.89858    0.07097    0.75083    1.000
    H91      H        0.89000    0.09440    0.71570    1.000
    C153     C        0.80699    0.15957    0.86995    1.000
    H92      H        0.81220    0.21020    0.89520    1.000
    C154     C        0.83198    0.95426    0.68488    1.000
    H93      H        0.85070    0.91500    0.70230    1.000
    C155     C        0.98447    0.02785    0.84657    1.000
    C156     C        0.92454    0.99820    0.85262    1.000
    H94      H        0.93320    0.97250    0.88720    1.000
    C157     C        0.16660    0.37492    0.95307    1.000
    C158     C        0.99944    0.95687    0.88350    1.000
    H95      H        0.98530    0.90830    0.89270    1.000
    C159     C        0.94710    0.02834    0.82250    1.000
    C160     C        0.93364    0.06337    0.77277    1.000
    H96      H        0.94890    0.08350    0.75220    1.000
    Co5      Co       0.20575    0.47386    0.46197    1.000
    O33      O        0.69731    0.82140    0.48449    1.000
    O34      O        0.27023    0.62186    0.03683    1.000
    O35      O        0.66142    0.88697    0.41556    1.000
    O36      O        0.25875    0.30120    0.42852    1.000
    O37      O        0.68958    0.11347    0.42828    1.000
    O38      O        0.24031    0.48779    0.03240    1.000
    O39      O        0.23653    0.45019    0.40984    1.000
    O40      O        0.66064    0.06225    0.48436    1.000
    N9       N        0.59067    0.47461    0.41753    1.000
    N10      N        0.34069    0.44029    0.26155    1.000
    C161     C        0.28562    0.51289    0.10860    1.000
    C162     C        0.63660    0.57146    0.47029    1.000
    H97      H        0.64190    0.52060    0.49540    1.000
    C163     C        0.60922    0.38627    0.42642    1.000
    C164     C        0.60949    0.56233    0.42622    1.000
    C165     C        0.55513    0.47359    0.39402    1.000
    C166     C        0.26339    0.54297    0.05459    1.000
    C167     C        0.32401    0.46474    0.20916    1.000
    C168     C        0.63824    0.37530    0.40857    1.000
    H98      H        0.64580    0.42620    0.38990    1.000
    C169     C        0.27868    0.39773    0.36812    1.000
    C170     C        0.64589    0.21624    0.44380    1.000
    C171     C        0.27124    0.46954    0.32994    1.000
    H99      H        0.25170    0.50900    0.32760    1.000
    C172     C        0.65610    0.65467    0.47792    1.000
    H100     H        0.67480    0.66070    0.50820    1.000
    C173     C        0.31995    0.42687    0.29816    1.000
    C174     C        0.62033    0.72016    0.39803    1.000
    H101     H        0.61410    0.77190    0.37370    1.000
    C175     C        0.37638    0.45657    0.28159    1.000
    C176     C        0.31254    0.57069    0.13434    1.000
    H102     H        0.31780    0.62750    0.11760    1.000
    C177     C        0.61627    0.22723    0.46276    1.000
    H103     H        0.60900    0.17650    0.48190    1.000
    C178     C        0.54090    0.40340    0.35819    1.000
    H104     H        0.55500    0.35480    0.34900    1.000
    C179     C        0.27850    0.42961    0.13205    1.000
    H105     H        0.26030    0.38950    0.11400    1.000
    C180     C        0.29147    0.48451    0.29574    1.000
    H106     H        0.28610    0.53450    0.27020    1.000
    C181     C        0.64840    0.72985    0.44112    1.000
    C182     C        0.25645    0.38118    0.40574    1.000
    C183     C        0.29766    0.40372    0.18178    1.000
    H107     H        0.29310    0.34500    0.19740    1.000
    C184     C        0.50571    0.40344    0.33531    1.000
    H108     H        0.49630    0.35380    0.31100    1.000
    C185     C        0.60125    0.63629    0.38997    1.000
    H109     H        0.58260    0.62970    0.35970    1.000
    C186     C        0.66987    0.81638    0.44710    1.000
    C187     C        0.65654    0.29006    0.41768    1.000
    H110     H        0.67680    0.28320    0.40550    1.000
    C188     C        0.53408    0.54406    0.40669    1.000
    H111     H        0.54360    0.59310    0.43140    1.000
    C189     C        0.32755    0.35519    0.33618    1.000
    H112     H        0.34720    0.31600    0.33870    1.000
    C190     C        0.38902    0.49400    0.33145    1.000
    H113     H        0.37370    0.51470    0.35170    1.000
    C191     C        0.59789    0.31055    0.45371    1.000
    H114     H        0.57760    0.31740    0.46570    1.000
    C192     C        0.39858    0.42903    0.25083    1.000
    H115     H        0.39000    0.40560    0.21570    1.000
    C193     C        0.30699    0.34043    0.36995    1.000
    H116     H        0.31220    0.28980    0.39520    1.000
    C194     C        0.33198    0.54574    0.18488    1.000
    H117     H        0.35070    0.58500    0.20230    1.000
    C195     C        0.48447    0.47215    0.34657    1.000
    C196     C        0.42454    0.50180    0.35262    1.000
    H118     H        0.43320    0.52750    0.38720    1.000
    C197     C        0.66660    0.12508    0.45307    1.000
    C198     C        0.49944    0.54313    0.38350    1.000
    H119     H        0.48530    0.59170    0.39270    1.000
    C199     C        0.44710    0.47166    0.32250    1.000
    C200     C        0.43364    0.43663    0.27277    1.000
    H120     H        0.44890    0.41650    0.25220    1.000
    Co6      Co       0.70575    0.97386    0.46197    1.000
    O41      O        0.19731    0.32140    0.48449    1.000
    O42      O        0.77023    0.12186    0.03683    1.000
    O43      O        0.16142    0.38697    0.41556    1.000
    O44      O        0.75875    0.80120    0.42852    1.000
    O45      O        0.18958    0.61347    0.42828    1.000
    O46      O        0.74031    0.98779    0.03240    1.000
    O47      O        0.73653    0.95019    0.40984    1.000
    O48      O        0.16064    0.56225    0.48436    1.000
    N11      N        0.09067    0.97461    0.41753    1.000
    N12      N        0.84069    0.94029    0.26155    1.000
    C201     C        0.78562    0.01289    0.10860    1.000
    C202     C        0.13660    0.07146    0.47029    1.000
    H121     H        0.14190    0.02060    0.49540    1.000
    C203     C        0.10922    0.88627    0.42642    1.000
    C204     C        0.10949    0.06233    0.42622    1.000
    C205     C        0.05513    0.97359    0.39402    1.000
    C206     C        0.76339    0.04297    0.05459    1.000
    C207     C        0.82401    0.96474    0.20916    1.000
    C208     C        0.13824    0.87530    0.40857    1.000
    H122     H        0.14580    0.92620    0.38990    1.000
    C209     C        0.77868    0.89773    0.36812    1.000
    C210     C        0.14589    0.71624    0.44380    1.000
    C211     C        0.77124    0.96954    0.32994    1.000
    H123     H        0.75170    0.00900    0.32760    1.000
    C212     C        0.15610    0.15467    0.47792    1.000
    H124     H        0.17480    0.16070    0.50820    1.000
    C213     C        0.81995    0.92687    0.29816    1.000
    C214     C        0.12033    0.22016    0.39803    1.000
    H125     H        0.11410    0.27190    0.37370    1.000
    C215     C        0.87638    0.95657    0.28159    1.000
    C216     C        0.81254    0.07069    0.13434    1.000
    H126     H        0.81780    0.12750    0.11760    1.000
    C217     C        0.11627    0.72723    0.46276    1.000
    H127     H        0.10900    0.67650    0.48190    1.000
    C218     C        0.04090    0.90340    0.35819    1.000
    H128     H        0.05500    0.85480    0.34900    1.000
    C219     C        0.77850    0.92961    0.13205    1.000
    H129     H        0.76030    0.88950    0.11400    1.000
    C220     C        0.79147    0.98451    0.29574    1.000
    H130     H        0.78610    0.03450    0.27020    1.000
    C221     C        0.14840    0.22985    0.44112    1.000
    C222     C        0.75645    0.88118    0.40574    1.000
    C223     C        0.79766    0.90372    0.18178    1.000
    H131     H        0.79310    0.84500    0.19740    1.000
    C224     C        0.00571    0.90344    0.33531    1.000
    H132     H        0.99630    0.85380    0.31100    1.000
    C225     C        0.10125    0.13629    0.38997    1.000
    H133     H        0.08260    0.12970    0.35970    1.000
    C226     C        0.16987    0.31638    0.44710    1.000
    C227     C        0.15654    0.79006    0.41768    1.000
    H134     H        0.17680    0.78320    0.40550    1.000
    C228     C        0.03408    0.04406    0.40669    1.000
    H135     H        0.04360    0.09310    0.43140    1.000
    C229     C        0.82755    0.85519    0.33618    1.000
    H136     H        0.84720    0.81600    0.33870    1.000
    C230     C        0.88902    0.99400    0.33145    1.000
    H137     H        0.87370    0.01470    0.35170    1.000
    C231     C        0.09789    0.81055    0.45371    1.000
    H138     H        0.07760    0.81740    0.46570    1.000
    C232     C        0.89858    0.92903    0.25083    1.000
    H139     H        0.89000    0.90560    0.21570    1.000
    C233     C        0.80699    0.84043    0.36995    1.000
    H140     H        0.81220    0.78980    0.39520    1.000
    C234     C        0.83198    0.04574    0.18488    1.000
    H141     H        0.85070    0.08500    0.20230    1.000
    C235     C        0.98447    0.97215    0.34657    1.000
    C236     C        0.92454    0.00180    0.35262    1.000
    H142     H        0.93320    0.02750    0.38720    1.000
    C237     C        0.16660    0.62508    0.45307    1.000
    C238     C        0.99944    0.04313    0.38350    1.000
    H143     H        0.98530    0.09170    0.39270    1.000
    C239     C        0.94710    0.97166    0.32250    1.000
    C240     C        0.93364    0.93663    0.27277    1.000
    H144     H        0.94890    0.91650    0.25220    1.000
    Co7      Co       0.79425    0.47386    0.03803    1.000
    O49      O        0.30269    0.82140    0.01551    1.000
    O50      O        0.72977    0.62186    0.46317    1.000
    O51      O        0.33858    0.88697    0.08444    1.000
    O52      O        0.74125    0.30120    0.07148    1.000
    O53      O        0.31042    0.11347    0.07172    1.000
    O54      O        0.75969    0.48779    0.46760    1.000
    O55      O        0.76347    0.45019    0.09016    1.000
    O56      O        0.33936    0.06225    0.01564    1.000
    N13      N        0.40933    0.47461    0.08247    1.000
    N14      N        0.65931    0.44029    0.23845    1.000
    C241     C        0.71438    0.51289    0.39140    1.000
    C242     C        0.36340    0.57146    0.02971    1.000
    H145     H        0.35810    0.52060    0.00460    1.000
    C243     C        0.39078    0.38627    0.07358    1.000
    C244     C        0.39051    0.56233    0.07378    1.000
    C245     C        0.44487    0.47359    0.10598    1.000
    C246     C        0.73661    0.54297    0.44541    1.000
    C247     C        0.67599    0.46474    0.29084    1.000
    C248     C        0.36176    0.37530    0.09143    1.000
    H146     H        0.35420    0.42620    0.11010    1.000
    C249     C        0.72132    0.39773    0.13188    1.000
    C250     C        0.35411    0.21624    0.05620    1.000
    C251     C        0.72876    0.46954    0.17006    1.000
    H147     H        0.74830    0.50900    0.17240    1.000
    C252     C        0.34390    0.65467    0.02208    1.000
    H148     H        0.32520    0.66070    0.99180    1.000
    C253     C        0.68005    0.42687    0.20184    1.000
    C254     C        0.37967    0.72016    0.10197    1.000
    H149     H        0.38590    0.77190    0.12630    1.000
    C255     C        0.62362    0.45657    0.21841    1.000
    C256     C        0.68746    0.57069    0.36566    1.000
    H150     H        0.68220    0.62750    0.38240    1.000
    C257     C        0.38373    0.22723    0.03724    1.000
    H151     H        0.39100    0.17650    0.01810    1.000
    C258     C        0.45910    0.40340    0.14181    1.000
    H152     H        0.44500    0.35480    0.15100    1.000
    C259     C        0.72150    0.42961    0.36795    1.000
    H153     H        0.73970    0.38950    0.38600    1.000
    C260     C        0.70853    0.48451    0.20426    1.000
    H154     H        0.71390    0.53450    0.22980    1.000
    C261     C        0.35160    0.72985    0.05888    1.000
    C262     C        0.74355    0.38118    0.09426    1.000
    C263     C        0.70234    0.40372    0.31822    1.000
    H155     H        0.70690    0.34500    0.30260    1.000
    C264     C        0.49429    0.40344    0.16469    1.000
    H156     H        0.50370    0.35380    0.18900    1.000
    C265     C        0.39875    0.63629    0.11003    1.000
    H157     H        0.41740    0.62970    0.14030    1.000
    C266     C        0.33013    0.81638    0.05290    1.000
    C267     C        0.34346    0.29006    0.08232    1.000
    H158     H        0.32320    0.28320    0.09450    1.000
    C268     C        0.46592    0.54406    0.09331    1.000
    H159     H        0.45640    0.59310    0.06860    1.000
    C269     C        0.67245    0.35519    0.16382    1.000
    H160     H        0.65280    0.31600    0.16130    1.000
    C270     C        0.61098    0.49400    0.16855    1.000
    H161     H        0.62630    0.51470    0.14830    1.000
    C271     C        0.40211    0.31055    0.04629    1.000
    H162     H        0.42240    0.31740    0.03430    1.000
    C272     C        0.60142    0.42903    0.24917    1.000
    H163     H        0.61000    0.40560    0.28430    1.000
    C273     C        0.69301    0.34043    0.13005    1.000
    H164     H        0.68780    0.28980    0.10480    1.000
    C274     C        0.66802    0.54574    0.31512    1.000
    H165     H        0.64930    0.58500    0.29770    1.000
    C275     C        0.51553    0.47215    0.15343    1.000
    C276     C        0.57546    0.50180    0.14738    1.000
    H166     H        0.56680    0.52750    0.11280    1.000
    C277     C        0.33340    0.12508    0.04693    1.000
    C278     C        0.50056    0.54313    0.11650    1.000
    H167     H        0.51470    0.59170    0.10730    1.000
    C279     C        0.55290    0.47166    0.17750    1.000
    C280     C        0.56636    0.43663    0.22723    1.000
    H168     H        0.55110    0.41650    0.24780    1.000
    Co8      Co       0.29425    0.97386    0.03803    1.000
    O57      O        0.80269    0.32140    0.01551    1.000
    O58      O        0.22977    0.12186    0.46317    1.000
    O59      O        0.83858    0.38697    0.08444    1.000
    O60      O        0.24125    0.80120    0.07148    1.000
    O61      O        0.81042    0.61347    0.07172    1.000
    O62      O        0.25969    0.98779    0.46760    1.000
    O63      O        0.26347    0.95019    0.09016    1.000
    O64      O        0.83936    0.56225    0.01564    1.000
    N15      N        0.90933    0.97461    0.08247    1.000
    N16      N        0.15931    0.94029    0.23845    1.000
    C281     C        0.21438    0.01289    0.39140    1.000
    C282     C        0.86340    0.07146    0.02971    1.000
    H169     H        0.85810    0.02060    0.00460    1.000
    C283     C        0.89078    0.88627    0.07358    1.000
    C284     C        0.89051    0.06233    0.07378    1.000
    C285     C        0.94487    0.97359    0.10598    1.000
    C286     C        0.23661    0.04297    0.44541    1.000
    C287     C        0.17599    0.96474    0.29084    1.000
    C288     C        0.86176    0.87530    0.09143    1.000
    H170     H        0.85420    0.92620    0.11010    1.000
    C289     C        0.22132    0.89773    0.13188    1.000
    C290     C        0.85411    0.71624    0.05620    1.000
    C291     C        0.22876    0.96954    0.17006    1.000
    H171     H        0.24830    0.00900    0.17240    1.000
    C292     C        0.84390    0.15467    0.02208    1.000
    H172     H        0.82520    0.16070    0.99180    1.000
    C293     C        0.18005    0.92687    0.20184    1.000
    C294     C        0.87967    0.22016    0.10197    1.000
    H173     H        0.88590    0.27190    0.12630    1.000
    C295     C        0.12362    0.95657    0.21841    1.000
    C296     C        0.18746    0.07069    0.36566    1.000
    H174     H        0.18220    0.12750    0.38240    1.000
    C297     C        0.88373    0.72723    0.03724    1.000
    H175     H        0.89100    0.67650    0.01810    1.000
    C298     C        0.95910    0.90340    0.14181    1.000
    H176     H        0.94500    0.85480    0.15100    1.000
    C299     C        0.22150    0.92961    0.36795    1.000
    H177     H        0.23970    0.88950    0.38600    1.000
    C300     C        0.20853    0.98451    0.20426    1.000
    H178     H        0.21390    0.03450    0.22980    1.000
    C301     C        0.85160    0.22985    0.05888    1.000
    C302     C        0.24355    0.88118    0.09426    1.000
    C303     C        0.20234    0.90372    0.31822    1.000
    H179     H        0.20690    0.84500    0.30260    1.000
    C304     C        0.99429    0.90344    0.16469    1.000
    H180     H        0.00370    0.85380    0.18900    1.000
    C305     C        0.89875    0.13629    0.11003    1.000
    H181     H        0.91740    0.12970    0.14030    1.000
    C306     C        0.83013    0.31638    0.05290    1.000
    C307     C        0.84346    0.79006    0.08232    1.000
    H182     H        0.82320    0.78320    0.09450    1.000
    C308     C        0.96592    0.04406    0.09331    1.000
    H183     H        0.95640    0.09310    0.06860    1.000
    C309     C        0.17245    0.85519    0.16382    1.000
    H184     H        0.15280    0.81600    0.16130    1.000
    C310     C        0.11098    0.99400    0.16855    1.000
    H185     H        0.12630    0.01470    0.14830    1.000
    C311     C        0.90211    0.81055    0.04629    1.000
    H186     H        0.92240    0.81740    0.03430    1.000
    C312     C        0.10142    0.92903    0.24917    1.000
    H187     H        0.11000    0.90560    0.28430    1.000
    C313     C        0.19301    0.84043    0.13005    1.000
    H188     H        0.18780    0.78980    0.10480    1.000
    C314     C        0.16802    0.04574    0.31512    1.000
    H189     H        0.14930    0.08500    0.29770    1.000
    C315     C        0.01553    0.97215    0.15343    1.000
    C316     C        0.07546    0.00180    0.14738    1.000
    H190     H        0.06680    0.02750    0.11280    1.000
    C317     C        0.83340    0.62508    0.04693    1.000
    C318     C        0.00056    0.04313    0.11650    1.000
    H191     H        0.01470    0.09170    0.10730    1.000
    C319     C        0.05290    0.97166    0.17750    1.000
    C320     C        0.06636    0.93663    0.22723    1.000
    H192     H        0.05110    0.91650    0.24780    1.000
    Co9      Co       0.75000    0.75000    0.50000    1.000
    Co10     Co       0.25000    0.75000    0.00000    1.000
    Co11     Co       0.25000    0.25000    0.50000    1.000
    Co12     Co       0.75000    0.25000    0.00000    1.000
