# CIF file generated by openbabel 3.1.0, see https://openbabel.org
data_I
_chemical_name_common 'image0'
_cell_length_a 13.5015
_cell_length_b 17.0533
_cell_length_c 9.6093
_cell_angle_alpha 90
_cell_angle_beta 90
_cell_angle_gamma 90
_space_group_name_H-M_alt 'P 1'
_space_group_name_Hall 'P 1'
loop_
    _symmetry_equiv_pos_as_xyz
    x,y,z
loop_
    _atom_site_label
    _atom_site_type_symbol
    _atom_site_fract_x
    _atom_site_fract_y
    _atom_site_fract_z
    _atom_site_occupancy
    O1       O        0.60262    0.58380    0.38470    1.000
    C1       C        0.72130    0.71705    0.62770    1.000
    H1       H        0.70160    0.69400    0.71340    1.000
    H2       H        0.44060    0.39130    0.11450    1.000
    C2       C        0.41170    0.45900    0.08020    1.000
    H3       H        0.35120    0.48530    0.11470    1.000
    H4       H        0.41130    0.40430    0.11470    1.000
    O2       O        0.10262    0.08380    0.38470    1.000
    C3       C        0.22130    0.21705    0.62770    1.000
    H5       H        0.20160    0.19400    0.71340    1.000
    H6       H        0.94060    0.89130    0.11450    1.000
    C4       C        0.91170    0.95900    0.08020    1.000
    H7       H        0.85120    0.98530    0.11470    1.000
    H8       H        0.91130    0.90430    0.11470    1.000
    O3       O        0.39738    0.41620    0.38470    1.000
    C5       C        0.27870    0.28295    0.62770    1.000
    H9       H        0.29840    0.30600    0.71340    1.000
    H10      H        0.55940    0.60870    0.11450    1.000
    C6       C        0.58830    0.54100    0.08020    1.000
    H11      H        0.64880    0.51470    0.11470    1.000
    H12      H        0.58870    0.59570    0.11470    1.000
    O4       O        0.89738    0.91620    0.38470    1.000
    C7       C        0.77870    0.78295    0.62770    1.000
    H13      H        0.79840    0.80600    0.71340    1.000
    H14      H        0.05940    0.10870    0.11450    1.000
    C8       C        0.08830    0.04100    0.08020    1.000
    H15      H        0.14880    0.01470    0.11470    1.000
    H16      H        0.08870    0.09570    0.11470    1.000
    O5       O        0.39738    0.58380    0.61530    1.000
    C9       C        0.27870    0.71705    0.37230    1.000
    H17      H        0.29840    0.69400    0.28660    1.000
    H18      H        0.55940    0.39130    0.88550    1.000
    C10      C        0.58830    0.45900    0.91980    1.000
    H19      H        0.64880    0.48530    0.88530    1.000
    H20      H        0.58870    0.40430    0.88530    1.000
    O6       O        0.89738    0.08380    0.61530    1.000
    C11      C        0.77870    0.21705    0.37230    1.000
    H21      H        0.79840    0.19400    0.28660    1.000
    H22      H        0.05940    0.89130    0.88550    1.000
    C12      C        0.08830    0.95900    0.91980    1.000
    H23      H        0.14880    0.98530    0.88530    1.000
    H24      H        0.08870    0.90430    0.88530    1.000
    O7       O        0.60262    0.41620    0.61530    1.000
    C13      C        0.72130    0.28295    0.37230    1.000
    H25      H        0.70160    0.30600    0.28660    1.000
    H26      H        0.44060    0.60870    0.88550    1.000
    C14      C        0.41170    0.54100    0.91980    1.000
    H27      H        0.35120    0.51470    0.88530    1.000
    H28      H        0.41130    0.59570    0.88530    1.000
    O8       O        0.10262    0.91620    0.61530    1.000
    C15      C        0.22130    0.78295    0.37230    1.000
    H29      H        0.20160    0.80600    0.28660    1.000
    H30      H        0.94060    0.10870    0.88550    1.000
    C16      C        0.91170    0.04100    0.91980    1.000
    H31      H        0.85120    0.01470    0.88530    1.000
    H32      H        0.91130    0.09570    0.88530    1.000
    O9       O        0.39738    0.41620    0.61530    1.000
    C17      C        0.27870    0.28295    0.37230    1.000
    H33      H        0.29840    0.30600    0.28660    1.000
    H34      H        0.55940    0.60870    0.88550    1.000
    C18      C        0.58830    0.54100    0.91980    1.000
    H35      H        0.64880    0.51470    0.88530    1.000
    H36      H        0.58870    0.59570    0.88530    1.000
    O10      O        0.89738    0.91620    0.61530    1.000
    C19      C        0.77870    0.78295    0.37230    1.000
    H37      H        0.79840    0.80600    0.28660    1.000
    H38      H        0.05940    0.10870    0.88550    1.000
    C20      C        0.08830    0.04100    0.91980    1.000
    H39      H        0.14880    0.01470    0.88530    1.000
    H40      H        0.08870    0.09570    0.88530    1.000
    O11      O        0.60262    0.58380    0.61530    1.000
    C21      C        0.72130    0.71705    0.37230    1.000
    H41      H        0.70160    0.69400    0.28660    1.000
    H42      H        0.44060    0.39130    0.88550    1.000
    C22      C        0.41170    0.45900    0.91980    1.000
    H43      H        0.35120    0.48530    0.88530    1.000
    H44      H        0.41130    0.40430    0.88530    1.000
    O12      O        0.10262    0.08380    0.61530    1.000
    C23      C        0.22130    0.21705    0.37230    1.000
    H45      H        0.20160    0.19400    0.28660    1.000
    H46      H        0.94060    0.89130    0.88550    1.000
    C24      C        0.91170    0.95900    0.91980    1.000
    H47      H        0.85120    0.98530    0.88530    1.000
    H48      H        0.91130    0.90430    0.88530    1.000
    O13      O        0.60262    0.41620    0.38470    1.000
    C25      C        0.72130    0.28295    0.62770    1.000
    H49      H        0.70160    0.30600    0.71340    1.000
    H50      H        0.44060    0.60870    0.11450    1.000
    C26      C        0.41170    0.54100    0.08020    1.000
    H51      H        0.35120    0.51470    0.11470    1.000
    H52      H        0.41130    0.59570    0.11470    1.000
    O14      O        0.10262    0.91620    0.38470    1.000
    C27      C        0.22130    0.78295    0.62770    1.000
    H53      H        0.20160    0.80600    0.71340    1.000
    H54      H        0.94060    0.10870    0.11450    1.000
    C28      C        0.91170    0.04100    0.08020    1.000
    H55      H        0.85120    0.01470    0.11470    1.000
    H56      H        0.91130    0.09570    0.11470    1.000
    O15      O        0.39738    0.58380    0.38470    1.000
    C29      C        0.27870    0.71705    0.62770    1.000
    H57      H        0.29840    0.69400    0.71340    1.000
    H58      H        0.55940    0.39130    0.11450    1.000
    C30      C        0.58830    0.45900    0.08020    1.000
    H59      H        0.64880    0.48530    0.11470    1.000
    H60      H        0.58870    0.40430    0.11470    1.000
    O16      O        0.89738    0.08380    0.38470    1.000
    C31      C        0.77870    0.21705    0.62770    1.000
    H61      H        0.79840    0.19400    0.71340    1.000
    H62      H        0.05940    0.89130    0.11450    1.000
    C32      C        0.08830    0.95900    0.08020    1.000
    H63      H        0.14880    0.98530    0.11470    1.000
    H64      H        0.08870    0.90430    0.11470    1.000
    Zn1      Zn       0.50000    0.50000    0.34791    1.000
    N1       N        0.50000    0.50000    0.13380    1.000
    Zn2      Zn       0.00000    0.00000    0.34791    1.000
    N2       N        0.00000    0.00000    0.13380    1.000
    Zn3      Zn       0.50000    0.50000    0.65209    1.000
    N3       N        0.50000    0.50000    0.86620    1.000
    Zn4      Zn       0.00000    0.00000    0.65209    1.000
    N4       N        0.00000    0.00000    0.86620    1.000
    C33      C        0.62730    0.61072    0.50000    1.000
    C34      C        0.69120    0.68294    0.50000    1.000
    C35      C        0.12730    0.11072    0.50000    1.000
    C36      C        0.19120    0.18294    0.50000    1.000
    C37      C        0.37270    0.38928    0.50000    1.000
    C38      C        0.30880    0.31706    0.50000    1.000
    C39      C        0.87270    0.88928    0.50000    1.000
    C40      C        0.80880    0.81706    0.50000    1.000
    C41      C        0.37270    0.61072    0.50000    1.000
    C42      C        0.30880    0.68294    0.50000    1.000
    C43      C        0.87270    0.11072    0.50000    1.000
    C44      C        0.80880    0.18294    0.50000    1.000
    C45      C        0.62730    0.38928    0.50000    1.000
    C46      C        0.69120    0.31706    0.50000    1.000
    C47      C        0.12730    0.88928    0.50000    1.000
    C48      C        0.19120    0.81706    0.50000    1.000
    C49      C        0.50000    0.41930    0.08010    1.000
    C50      C        0.00000    0.91930    0.08010    1.000
    C51      C        0.50000    0.58070    0.08010    1.000
    C52      C        0.00000    0.08070    0.08010    1.000
    C53      C        0.50000    0.41930    0.91990    1.000
    C54      C        0.00000    0.91930    0.91990    1.000
    C55      C        0.50000    0.58070    0.91990    1.000
    C56      C        0.00000    0.08070    0.91990    1.000
