# CIF file generated by openbabel 3.1.0, see https://openbabel.org
data_I
_chemical_name_common 'image0'
_cell_length_a 10.647
_cell_length_b 11.472
_cell_length_c 11.764
_cell_angle_alpha 104.778
_cell_angle_beta 106.935
_cell_angle_gamma 95.964
_space_group_name_H-M_alt 'P 1'
_space_group_name_Hall 'P 1'
loop_
    _symmetry_equiv_pos_as_xyz
    x,y,z
loop_
    _atom_site_label
    _atom_site_type_symbol
    _atom_site_fract_x
    _atom_site_fract_y
    _atom_site_fract_z
    _atom_site_occupancy
    Eu1      Eu       0.89950    0.43986    0.12103    1.000
    O1       O        0.74365    0.48339    0.22255    1.000
    O2       O        0.80361    0.51520    0.42781    1.000
    O3       O        0.05140    0.74347    0.80611    1.000
    O4       O        0.17560    0.91506    0.95240    1.000
    H1       H        0.23160    0.86360    0.97880    1.000
    O5       O        0.90732    0.28804    0.94236    1.000
    O6       O        0.03835    0.34681    0.84042    1.000
    O7       O        0.12036    0.45979    0.12928    1.000
    O8       O        0.26526    0.51221    0.04001    1.000
    C1       C        0.71980    0.47840    0.32130    1.000
    C2       C        0.57660    0.42810    0.30430    1.000
    C3       C        0.54130    0.35170    0.37130    1.000
    C4       C        0.40640    0.31970    0.35700    1.000
    H2       H        0.38230    0.27070    0.40210    1.000
    C5       C        0.30740    0.35850    0.27800    1.000
    H3       H        0.21850    0.33770    0.27230    1.000
    C6       C        0.34130    0.42880    0.20690    1.000
    C7       C        0.47540    0.46200    0.22070    1.000
    H4       H        0.49840    0.50830    0.17280    1.000
    C8       C        0.23480    0.46970    0.11930    1.000
    C9       C        0.63890    0.29700    0.45100    1.000
    C10      C        0.72730    0.23210    0.40640    1.000
    H5       H        0.73510    0.23250    0.32980    1.000
    C11      C        0.80370    0.16680    0.47540    1.000
    H6       H        0.85970    0.12160    0.44310    1.000
    C12      C        0.79740    0.16830    0.59260    1.000
    C13      C        0.71480    0.23820    0.63960    1.000
    H7       H        0.71290    0.24400    0.71930    1.000
    C14      C        0.63480    0.29950    0.56850    1.000
    H8       H        0.57740    0.34320    0.60030    1.000
    C15      C        0.87170    0.09050    0.66200    1.000
    C16      C        0.86110    0.96610    0.60050    1.000
    H9       H        0.80910    0.93420    0.51690    1.000
    C17      C        0.92590    0.88980    0.66140    1.000
    H10      H        0.91680    0.80740    0.61900    1.000
    C18      C        0.00470    0.93680    0.78590    1.000
    C19      C        0.01390    0.05920    0.84910    1.000
    H11      H        0.06450    0.09010    0.93320    1.000
    C20      C        0.94870    0.13630    0.78850    1.000
    C21      C        0.96580    0.26874    0.86280    1.000
    C22      C        0.07810    0.85530    0.84890    1.000
    Eu2      Eu       0.10050    0.56014    0.87897    1.000
    O9       O        0.25635    0.51661    0.77745    1.000
    O10      O        0.19639    0.48480    0.57219    1.000
    O11      O        0.94860    0.25653    0.19389    1.000
    O12      O        0.82440    0.08494    0.04760    1.000
    H12      H        0.76840    0.13640    0.02120    1.000
    O13      O        0.09268    0.71196    0.05764    1.000
    O14      O        0.96165    0.65319    0.15958    1.000
    O15      O        0.87964    0.54021    0.87072    1.000
    O16      O        0.73474    0.48779    0.95999    1.000
    C23      C        0.28020    0.52160    0.67870    1.000
    C24      C        0.42340    0.57190    0.69570    1.000
    C25      C        0.45870    0.64830    0.62870    1.000
    C26      C        0.59360    0.68030    0.64300    1.000
    H13      H        0.61770    0.72930    0.59790    1.000
    C27      C        0.69260    0.64150    0.72200    1.000
    H14      H        0.78150    0.66230    0.72770    1.000
    C28      C        0.65870    0.57120    0.79310    1.000
    C29      C        0.52460    0.53800    0.77930    1.000
    H15      H        0.50160    0.49170    0.82720    1.000
    C30      C        0.76520    0.53030    0.88070    1.000
    C31      C        0.36110    0.70300    0.54900    1.000
    C32      C        0.27270    0.76790    0.59360    1.000
    H16      H        0.26490    0.76750    0.67020    1.000
    C33      C        0.19630    0.83320    0.52460    1.000
    H17      H        0.14030    0.87840    0.55690    1.000
    C34      C        0.20260    0.83170    0.40740    1.000
    C35      C        0.28520    0.76180    0.36040    1.000
    H18      H        0.28710    0.75600    0.28070    1.000
    C36      C        0.36520    0.70050    0.43150    1.000
    H19      H        0.42260    0.65680    0.39970    1.000
    C37      C        0.12830    0.90950    0.33800    1.000
    C38      C        0.13890    0.03390    0.39950    1.000
    H20      H        0.19090    0.06580    0.48310    1.000
    C39      C        0.07410    0.11020    0.33860    1.000
    H21      H        0.08320    0.19260    0.38100    1.000
    C40      C        0.99530    0.06320    0.21410    1.000
    C41      C        0.98610    0.94080    0.15090    1.000
    H22      H        0.93550    0.90990    0.06680    1.000
    C42      C        0.05130    0.86370    0.21150    1.000
    C43      C        0.03420    0.73126    0.13720    1.000
    C44      C        0.92190    0.14470    0.15110    1.000
