# CIF file generated by openbabel 3.1.0, see https://openbabel.org
data_I
_chemical_name_common 'image0'
_cell_length_a 33.1436
_cell_length_b 12.1866
_cell_length_c 18.7113
_cell_angle_alpha 90
_cell_angle_beta 90
_cell_angle_gamma 90
_space_group_name_H-M_alt 'P 1'
_space_group_name_Hall 'P 1'
loop_
    _symmetry_equiv_pos_as_xyz
    x,y,z
loop_
    _atom_site_label
    _atom_site_type_symbol
    _atom_site_fract_x
    _atom_site_fract_y
    _atom_site_fract_z
    _atom_site_occupancy
    N1       N        0.32677    0.10720    0.81190    1.000
    N2       N        0.28217    0.18210    0.68310    1.000
    N3       N        0.87743    0.18350    0.31690    1.000
    O1       O        0.07894    0.12160    0.51230    1.000
    S1       S        0.31027    0.90710    0.87958    1.000
    C1       C        0.31993    0.02440    0.84070    1.000
    C2       C        0.28266    0.19090    0.61180    1.000
    H1       H        0.30530    0.22190    0.59060    1.000
    C3       C        0.25198    0.15720    0.56800    1.000
    H2       H        0.25420    0.16370    0.51870    1.000
    C4       C        0.21710    0.11260    0.59930    1.000
    C5       C        0.21571    0.10530    0.67250    1.000
    H3       H        0.19280    0.07800    0.69500    1.000
    C6       C        0.24866    0.13860    0.71270    1.000
    H4       H        0.24760    0.13070    0.76210    1.000
    C7       C        0.18409    0.07360    0.55640    1.000
    C8       C        0.15683    0.03490    0.52410    1.000
    C9       C        0.12585    0.98240    0.48190    1.000
    C10      C        0.13323    0.88320    0.44920    1.000
    H5       H        0.15830    0.85030    0.45480    1.000
    C11      C        0.10420    0.83140    0.40840    1.000
    H6       H        0.10990    0.76540    0.38560    1.000
    C12      C        0.06595    0.88080    0.40220    1.000
    H7       H        0.04580    0.84500    0.37660    1.000
    C13      C        0.05777    0.98080    0.43320    1.000
    C14      C        0.08760    0.03180    0.47370    1.000
    C15      C        0.01916    0.03160    0.42140    1.000
    C16      C        0.98726    0.06700    0.40490    1.000
    C17      C        0.94899    0.10790    0.37860    1.000
    C18      C        0.92388    0.03710    0.34100    1.000
    H8       H        0.93070    0.96360    0.33530    1.000
    C19      C        0.88861    0.07830    0.31220    1.000
    H9       H        0.87170    0.03010    0.28810    1.000
    C20      C        0.90120    0.24920    0.35570    1.000
    H10      H        0.89330    0.32170    0.36230    1.000
    C21      C        0.93701    0.21490    0.38660    1.000
    H11      H        0.95280    0.26390    0.41260    1.000
    C22      C        0.08500    0.21810    0.48720    1.000
    H12      H        0.11070    0.21790    0.46250    1.000
    H13      H        0.06430    0.23300    0.45180    1.000
    C23      C        0.08530    0.31280    0.54070    1.000
    H14      H        0.09410    0.37900    0.51650    1.000
    H15      H        0.10470    0.29670    0.57810    1.000
    C24      C        0.04530    0.33360    0.57400    1.000
    F1       F        0.03510    0.24290    0.61290    1.000
    F2       F        0.01700    0.32770    0.51960    1.000
    C25      C        0.04180    0.43460    0.61510    1.000
    F3       F        0.04610    0.51850    0.56730    1.000
    F4       F        0.07690    0.44520    0.65380    1.000
    C26      C        0.01120    0.46990    0.66560    1.000
    F5       F        0.02130    0.57500    0.69340    1.000
    F6       F        0.01390    0.40700    0.72920    1.000
    C27      C        0.96870    0.47000    0.64920    1.000
    F7       F        0.95820    0.36120    0.64660    1.000
    F8       F        0.96500    0.51490    0.58220    1.000
    C28      C        0.94060    0.52650    0.69320    1.000
    F9       F        0.94160    0.63870    0.67640    1.000
    F10      F        0.95040    0.53500    0.76410    1.000
    C29      C        0.89890    0.49030    0.68640    1.000
    F11      F        0.89360    0.39440    0.71000    1.000
    F12      F        0.87480    0.55500    0.71880    1.000
    F13      F        0.88530    0.49300    0.62270    1.000
    C30      C        0.79260    0.20030    0.92510    1.000
    H16      H        0.80350    0.25800    0.95510    1.000
    H17      H        0.76360    0.20950    0.92760    1.000
    C31      C        0.80250    0.24200    0.84880    1.000
    H18      H        0.78040    0.29210    0.84040    1.000
    H19      H        0.82560    0.28840    0.85790    1.000
    O2       O        0.79940    0.10160    0.96820    1.000
    H20      H        0.78960    0.11040    0.00810    1.000
    O3       O        0.81100    0.20400    0.77690    1.000
    H21      H        0.81460    0.24240    0.74910    1.000
    C32      C        0.73700    0.12000    0.03200    1.000
    H22      H        0.72100    0.15870    0.99570    1.000
    H23      H        0.72580    0.14520    0.07680    1.000
    C33      C        0.71900    0.00400    0.02700    1.000
    H24      H        0.72120    0.97980    0.07590    1.000
    H25      H        0.69080    0.01930    0.01960    1.000
    O4       O        0.77500    0.18100    0.02900    1.000
    H26      H        0.79230    0.14150    0.01150    1.000
    O5       O        0.72370    0.90100    0.98800    1.000
    H27      H        0.70150    0.88000    0.97430    1.000
    C34      C        0.58940    0.21730    0.52240    1.000
    C35      C        0.54530    0.15600    0.47400    1.000
    C36      C        0.69260    0.83800    0.92440    1.000
    C37      C        0.57580    0.20900    0.04360    1.000
    C38      C        0.51110    0.20500    0.42400    1.000
    C39      C        0.72750    0.75900    0.91500    1.000
    C40      C        0.53760    0.17730    0.08330    1.000
    C41      C        0.53820    0.21900    0.11500    1.000
    C42      C        0.52350    0.07050    0.11160    1.000
    C43      C        0.52660    0.12800    0.16080    1.000
    C44      C        0.48300    0.06280    0.14320    1.000
    C45      C        0.49790    0.05130    0.13100    1.000
    C46      C        0.46210    0.96890    0.17820    1.000
    C47      C        0.47740    0.95780    0.16770    1.000
    C48      C        0.41970    0.95040    0.18730    1.000
    C49      C        0.44020    0.93580    0.20790    1.000
    C50      C        0.40730    0.85800    0.23200    1.000
    C51      C        0.43050    0.83100    0.24080    1.000
    F14      F        0.40220    0.04600    0.21350    1.000
    F15      F        0.40780    0.96600    0.16500    1.000
    F16      F        0.41290    0.76730    0.20160    1.000
    F17      F        0.42660    0.75530    0.19480    1.000
    F18      F        0.41500    0.87100    0.29710    1.000
    F19      F        0.45880    0.78500    0.27290    1.000
    F20      F        0.36950    0.84800    0.23760    1.000
    F21      F        0.39500    0.82300    0.26400    1.000
    F22      F        0.50610    0.21070    0.03850    1.000
    F23      F        0.56660    0.18100    0.06500    1.000
    F24      F        0.53730    0.24910    0.14370    1.000
    F25      F        0.56700    0.21800    0.34900    1.000
    F26      F        0.54920    0.03960    0.16140    1.000
    F27      F        0.50900    0.17100    0.22000    1.000
    F28      F        0.52630    0.99510    0.05980    1.000
    F29      F        0.56120    0.07500    0.17600    1.000
    F30      F        0.45590    0.09450    0.08660    1.000
    F31      F        0.46330    0.12160    0.11090    1.000
    F32      F        0.48230    0.14630    0.19720    1.000
    F33      F        0.51950    0.99400    0.07400    1.000
    F34      F        0.47770    0.87960    0.14510    1.000
    F35      F        0.47480    0.88330    0.11090    1.000
    F36      F        0.47810    0.97100    0.24650    1.000
    F37      F        0.50730    0.90740    0.20550    1.000
    F38      F        0.40100    0.93600    0.12110    1.000
    F39      F        0.43530    0.01900    0.25720    1.000
    H28      H        0.61800    0.22240    0.53270    1.000
    H29      H        0.57360    0.23040    0.56520    1.000
    H30      H        0.54400    0.21170    0.51150    1.000
    H31      H        0.52990    0.09560    0.49380    1.000
    H32      H        0.70070    0.89670    0.89230    1.000
    H33      H        0.67160    0.79950    0.89860    1.000
    H34      H        0.64950    0.92870    0.95530    1.000
    H35      H        0.58700    0.13770    0.03130    1.000
    H36      H        0.59290    0.23590    0.08180    1.000
    H37      H        0.49920    0.15010    0.39300    1.000
    H38      H        0.49020    0.24330    0.45040    1.000
    H39      H        0.74650    0.80930    0.89250    1.000
    H40      H        0.73650    0.75640    0.96430    1.000
    H41      H        0.73150    0.16700    0.61900    1.000
    O6       O        0.66850    0.89900    0.97590    1.000
    O7       O        0.74460    0.65800    0.89070    1.000
    N4       N        0.17323    0.89280    0.81190    1.000
    N5       N        0.21783    0.81790    0.68310    1.000
    N6       N        0.62257    0.81650    0.31690    1.000
    O8       O        0.42106    0.87840    0.51230    1.000
    S2       S        0.18973    0.09290    0.87958    1.000
    C52      C        0.18007    0.97560    0.84070    1.000
    C53      C        0.21734    0.80910    0.61180    1.000
    H42      H        0.19470    0.77810    0.59060    1.000
    C54      C        0.24802    0.84280    0.56800    1.000
    H43      H        0.24580    0.83630    0.51870    1.000
    C55      C        0.28290    0.88740    0.59930    1.000
    C56      C        0.28429    0.89470    0.67250    1.000
    H44      H        0.30720    0.92200    0.69500    1.000
    C57      C        0.25134    0.86140    0.71270    1.000
    H45      H        0.25240    0.86930    0.76210    1.000
    C58      C        0.31591    0.92640    0.55640    1.000
    C59      C        0.34317    0.96510    0.52410    1.000
    C60      C        0.37415    0.01760    0.48190    1.000
    C61      C        0.36677    0.11680    0.44920    1.000
    H46      H        0.34170    0.14970    0.45480    1.000
    C62      C        0.39580    0.16860    0.40840    1.000
    H47      H        0.39010    0.23460    0.38560    1.000
    C63      C        0.43405    0.11920    0.40220    1.000
    H48      H        0.45420    0.15500    0.37660    1.000
    C64      C        0.44223    0.01920    0.43320    1.000
    C65      C        0.41240    0.96820    0.47370    1.000
    C66      C        0.48084    0.96840    0.42140    1.000
    C67      C        0.51274    0.93300    0.40490    1.000
    C68      C        0.55101    0.89210    0.37860    1.000
    C69      C        0.57612    0.96290    0.34100    1.000
    H49      H        0.56930    0.03640    0.33530    1.000
    C70      C        0.61139    0.92170    0.31220    1.000
    H50      H        0.62830    0.96990    0.28810    1.000
    C71      C        0.59880    0.75080    0.35570    1.000
    H51      H        0.60670    0.67830    0.36230    1.000
    C72      C        0.56299    0.78510    0.38660    1.000
    H52      H        0.54720    0.73610    0.41260    1.000
    C73      C        0.41500    0.78190    0.48720    1.000
    H53      H        0.38930    0.78210    0.46250    1.000
    H54      H        0.43570    0.76700    0.45180    1.000
    C74      C        0.41470    0.68720    0.54070    1.000
    H55      H        0.40590    0.62100    0.51650    1.000
    H56      H        0.39530    0.70330    0.57810    1.000
    C75      C        0.45470    0.66640    0.57400    1.000
    F40      F        0.46490    0.75710    0.61290    1.000
    F41      F        0.48300    0.67230    0.51960    1.000
    C76      C        0.45820    0.56540    0.61510    1.000
    F42      F        0.45390    0.48150    0.56730    1.000
    F43      F        0.42310    0.55480    0.65380    1.000
    C77      C        0.48880    0.53010    0.66560    1.000
    F44      F        0.47870    0.42500    0.69340    1.000
    F45      F        0.48610    0.59300    0.72920    1.000
    C78      C        0.53130    0.53000    0.64920    1.000
    F46      F        0.54180    0.63880    0.64660    1.000
    F47      F        0.53500    0.48510    0.58220    1.000
    C79      C        0.55940    0.47350    0.69320    1.000
    F48      F        0.55840    0.36130    0.67640    1.000
    F49      F        0.54960    0.46500    0.76410    1.000
    C80      C        0.60110    0.50970    0.68640    1.000
    F50      F        0.60640    0.60560    0.71000    1.000
    F51      F        0.62520    0.44500    0.71880    1.000
    F52      F        0.61470    0.50700    0.62270    1.000
    C81      C        0.70740    0.79970    0.92510    1.000
    H57      H        0.69650    0.74200    0.95510    1.000
    H58      H        0.73640    0.79050    0.92760    1.000
    C82      C        0.69750    0.75800    0.84880    1.000
    H59      H        0.71960    0.70790    0.84040    1.000
    H60      H        0.67440    0.71160    0.85790    1.000
    O9       O        0.70060    0.89840    0.96820    1.000
    H61      H        0.71040    0.88960    0.00810    1.000
    O10      O        0.68900    0.79600    0.77690    1.000
    H62      H        0.68540    0.75760    0.74910    1.000
    C83      C        0.76300    0.88000    0.03200    1.000
    H63      H        0.77900    0.84130    0.99570    1.000
    H64      H        0.77420    0.85480    0.07680    1.000
    C84      C        0.78100    0.99600    0.02700    1.000
    H65      H        0.77880    0.02020    0.07590    1.000
    H66      H        0.80920    0.98070    0.01960    1.000
    O11      O        0.72500    0.81900    0.02900    1.000
    H67      H        0.70770    0.85850    0.01150    1.000
    O12      O        0.77630    0.09900    0.98800    1.000
    H68      H        0.79850    0.12000    0.97430    1.000
    C85      C        0.91060    0.78270    0.52240    1.000
    C86      C        0.95470    0.84400    0.47400    1.000
    C87      C        0.80740    0.16200    0.92440    1.000
    C88      C        0.92420    0.79100    0.04360    1.000
    C89      C        0.98890    0.79500    0.42400    1.000
    C90      C        0.77250    0.24100    0.91500    1.000
    C91      C        0.96240    0.82270    0.08330    1.000
    C92      C        0.96180    0.78100    0.11500    1.000
    C93      C        0.97650    0.92950    0.11160    1.000
    C94      C        0.97340    0.87200    0.16080    1.000
    C95      C        0.01700    0.93720    0.14320    1.000
    C96      C        0.00210    0.94870    0.13100    1.000
    C97      C        0.03790    0.03110    0.17820    1.000
    C98      C        0.02260    0.04220    0.16770    1.000
    C99      C        0.08030    0.04960    0.18730    1.000
    C100     C        0.05980    0.06420    0.20790    1.000
    C101     C        0.09270    0.14200    0.23200    1.000
    C102     C        0.06950    0.16900    0.24080    1.000
    F53      F        0.09780    0.95400    0.21350    1.000
    F54      F        0.09220    0.03400    0.16500    1.000
    F55      F        0.08710    0.23270    0.20160    1.000
    F56      F        0.07340    0.24470    0.19480    1.000
    F57      F        0.08500    0.12900    0.29710    1.000
    F58      F        0.04120    0.21500    0.27290    1.000
    F59      F        0.13050    0.15200    0.23760    1.000
    F60      F        0.10500    0.17700    0.26400    1.000
    F61      F        0.99390    0.78930    0.03850    1.000
    F62      F        0.93340    0.81900    0.06500    1.000
    F63      F        0.96270    0.75090    0.14370    1.000
    F64      F        0.93300    0.78200    0.34900    1.000
    F65      F        0.95080    0.96040    0.16140    1.000
    F66      F        0.99100    0.82900    0.22000    1.000
    F67      F        0.97370    0.00490    0.05980    1.000
    F68      F        0.93880    0.92500    0.17600    1.000
    F69      F        0.04410    0.90550    0.08660    1.000
    F70      F        0.03670    0.87840    0.11090    1.000
    F71      F        0.01770    0.85370    0.19720    1.000
    F72      F        0.98050    0.00600    0.07400    1.000
    F73      F        0.02230    0.12040    0.14510    1.000
    F74      F        0.02520    0.11670    0.11090    1.000
    F75      F        0.02190    0.02900    0.24650    1.000
    F76      F        0.99270    0.09260    0.20550    1.000
    F77      F        0.09900    0.06400    0.12110    1.000
    F78      F        0.06470    0.98100    0.25720    1.000
    H69      H        0.88200    0.77760    0.53270    1.000
    H70      H        0.92640    0.76960    0.56520    1.000
    H71      H        0.95600    0.78830    0.51150    1.000
    H72      H        0.97010    0.90440    0.49380    1.000
    H73      H        0.79930    0.10330    0.89230    1.000
    H74      H        0.82840    0.20050    0.89860    1.000
    H75      H        0.85050    0.07130    0.95530    1.000
    H76      H        0.91300    0.86230    0.03130    1.000
    H77      H        0.90710    0.76410    0.08180    1.000
    H78      H        0.00080    0.84990    0.39300    1.000
    H79      H        0.00980    0.75670    0.45040    1.000
    H80      H        0.75350    0.19070    0.89250    1.000
    H81      H        0.76350    0.24360    0.96430    1.000
    H82      H        0.76850    0.83300    0.61900    1.000
    O13      O        0.83150    0.10100    0.97590    1.000
    O14      O        0.75540    0.34200    0.89070    1.000
    N7       N        0.17323    0.60720    0.68810    1.000
    N8       N        0.21783    0.68210    0.81690    1.000
    N9       N        0.62257    0.68350    0.18310    1.000
    O15      O        0.42106    0.62160    0.98770    1.000
    S3       S        0.18973    0.40710    0.62042    1.000
    C103     C        0.18007    0.52440    0.65930    1.000
    C104     C        0.21734    0.69090    0.88820    1.000
    H83      H        0.19470    0.72190    0.90940    1.000
    C105     C        0.24802    0.65720    0.93200    1.000
    H84      H        0.24580    0.66370    0.98130    1.000
    C106     C        0.28290    0.61260    0.90070    1.000
    C107     C        0.28429    0.60530    0.82750    1.000
    H85      H        0.30720    0.57800    0.80500    1.000
    C108     C        0.25134    0.63860    0.78730    1.000
    H86      H        0.25240    0.63070    0.73790    1.000
    C109     C        0.31591    0.57360    0.94360    1.000
    C110     C        0.34317    0.53490    0.97590    1.000
    C111     C        0.37415    0.48240    0.01810    1.000
    C112     C        0.36677    0.38320    0.05080    1.000
    H87      H        0.34170    0.35030    0.04520    1.000
    C113     C        0.39580    0.33140    0.09160    1.000
    H88      H        0.39010    0.26540    0.11440    1.000
    C114     C        0.43405    0.38080    0.09780    1.000
    H89      H        0.45420    0.34500    0.12340    1.000
    C115     C        0.44223    0.48080    0.06680    1.000
    C116     C        0.41240    0.53180    0.02630    1.000
    C117     C        0.48084    0.53160    0.07860    1.000
    C118     C        0.51274    0.56700    0.09510    1.000
    C119     C        0.55101    0.60790    0.12140    1.000
    C120     C        0.57612    0.53710    0.15900    1.000
    H90      H        0.56930    0.46360    0.16470    1.000
    C121     C        0.61139    0.57830    0.18780    1.000
    H91      H        0.62830    0.53010    0.21190    1.000
    C122     C        0.59880    0.74920    0.14430    1.000
    H92      H        0.60670    0.82170    0.13770    1.000
    C123     C        0.56299    0.71490    0.11340    1.000
    H93      H        0.54720    0.76390    0.08740    1.000
    C124     C        0.41500    0.71810    0.01280    1.000
    H94      H        0.38930    0.71790    0.03750    1.000
    H95      H        0.43570    0.73300    0.04820    1.000
    C125     C        0.41470    0.81280    0.95930    1.000
    H96      H        0.40590    0.87900    0.98350    1.000
    H97      H        0.39530    0.79670    0.92190    1.000
    C126     C        0.45470    0.83360    0.92600    1.000
    F79      F        0.46490    0.74290    0.88710    1.000
    F80      F        0.48300    0.82770    0.98040    1.000
    C127     C        0.45820    0.93460    0.88490    1.000
    F81      F        0.45390    0.01850    0.93270    1.000
    F82      F        0.42310    0.94520    0.84620    1.000
    C128     C        0.48880    0.96990    0.83440    1.000
    F83      F        0.47870    0.07500    0.80660    1.000
    F84      F        0.48610    0.90700    0.77080    1.000
    C129     C        0.53130    0.97000    0.85080    1.000
    F85      F        0.54180    0.86120    0.85340    1.000
    F86      F        0.53500    0.01490    0.91780    1.000
    C130     C        0.55940    0.02650    0.80680    1.000
    F87      F        0.55840    0.13870    0.82360    1.000
    F88      F        0.54960    0.03500    0.73590    1.000
    C131     C        0.60110    0.99030    0.81360    1.000
    F89      F        0.60640    0.89440    0.79000    1.000
    F90      F        0.62520    0.05500    0.78120    1.000
    F91      F        0.61470    0.99300    0.87730    1.000
    C132     C        0.70740    0.70030    0.57490    1.000
    H98      H        0.69650    0.75800    0.54490    1.000
    H99      H        0.73640    0.70950    0.57240    1.000
    C133     C        0.69750    0.74200    0.65120    1.000
    H100     H        0.71960    0.79210    0.65960    1.000
    H101     H        0.67440    0.78840    0.64210    1.000
    O16      O        0.70060    0.60160    0.53180    1.000
    H102     H        0.71040    0.61040    0.49190    1.000
    O17      O        0.68900    0.70400    0.72310    1.000
    H103     H        0.68540    0.74240    0.75090    1.000
    C134     C        0.76300    0.62000    0.46800    1.000
    H104     H        0.77900    0.65870    0.50430    1.000
    H105     H        0.77420    0.64520    0.42320    1.000
    C135     C        0.78100    0.50400    0.47300    1.000
    H106     H        0.77880    0.47980    0.42410    1.000
    H107     H        0.80920    0.51930    0.48040    1.000
    O18      O        0.72500    0.68100    0.47100    1.000
    H108     H        0.70770    0.64150    0.48850    1.000
    O19      O        0.77630    0.40100    0.51200    1.000
    H109     H        0.79850    0.38000    0.52570    1.000
    C136     C        0.91060    0.71730    0.97760    1.000
    C137     C        0.95470    0.65600    0.02600    1.000
    C138     C        0.80740    0.33800    0.57560    1.000
    C139     C        0.92420    0.70900    0.45640    1.000
    C140     C        0.98890    0.70500    0.07600    1.000
    C141     C        0.77250    0.25900    0.58500    1.000
    C142     C        0.96240    0.67730    0.41670    1.000
    C143     C        0.96180    0.71900    0.38500    1.000
    C144     C        0.97650    0.57050    0.38840    1.000
    C145     C        0.97340    0.62800    0.33920    1.000
    C146     C        0.01700    0.56280    0.35680    1.000
    C147     C        0.00210    0.55130    0.36900    1.000
    C148     C        0.03790    0.46890    0.32180    1.000
    C149     C        0.02260    0.45780    0.33230    1.000
    C150     C        0.08030    0.45040    0.31270    1.000
    C151     C        0.05980    0.43580    0.29210    1.000
    C152     C        0.09270    0.35800    0.26800    1.000
    C153     C        0.06950    0.33100    0.25920    1.000
    F92      F        0.09780    0.54600    0.28650    1.000
    F93      F        0.09220    0.46600    0.33500    1.000
    F94      F        0.08710    0.26730    0.29840    1.000
    F95      F        0.07340    0.25530    0.30520    1.000
    F96      F        0.08500    0.37100    0.20290    1.000
    F97      F        0.04120    0.28500    0.22710    1.000
    F98      F        0.13050    0.34800    0.26240    1.000
    F99      F        0.10500    0.32300    0.23600    1.000
    F100     F        0.99390    0.71070    0.46150    1.000
    F101     F        0.93340    0.68100    0.43500    1.000
    F102     F        0.96270    0.74910    0.35630    1.000
    F103     F        0.93300    0.71800    0.15100    1.000
    F104     F        0.95080    0.53960    0.33860    1.000
    F105     F        0.99100    0.67100    0.28000    1.000
    F106     F        0.97370    0.49510    0.44020    1.000
    F107     F        0.93880    0.57500    0.32400    1.000
    F108     F        0.04410    0.59450    0.41340    1.000
    F109     F        0.03670    0.62160    0.38910    1.000
    F110     F        0.01770    0.64630    0.30280    1.000
    F111     F        0.98050    0.49400    0.42600    1.000
    F112     F        0.02230    0.37960    0.35490    1.000
    F113     F        0.02520    0.38330    0.38910    1.000
    F114     F        0.02190    0.47100    0.25350    1.000
    F115     F        0.99270    0.40740    0.29450    1.000
    F116     F        0.09900    0.43600    0.37890    1.000
    F117     F        0.06470    0.51900    0.24280    1.000
    H110     H        0.88200    0.72240    0.96730    1.000
    H111     H        0.92640    0.73040    0.93480    1.000
    H112     H        0.95600    0.71170    0.98850    1.000
    H113     H        0.97010    0.59560    0.00620    1.000
    H114     H        0.79930    0.39670    0.60770    1.000
    H115     H        0.82840    0.29950    0.60140    1.000
    H116     H        0.85050    0.42870    0.54470    1.000
    H117     H        0.91300    0.63770    0.46870    1.000
    H118     H        0.90710    0.73590    0.41820    1.000
    H119     H        0.00080    0.65010    0.10700    1.000
    H120     H        0.00980    0.74330    0.04960    1.000
    H121     H        0.75350    0.30930    0.60750    1.000
    H122     H        0.76350    0.25640    0.53570    1.000
    H123     H        0.76850    0.66700    0.88100    1.000
    O20      O        0.83150    0.39900    0.52410    1.000
    O21      O        0.75540    0.15800    0.60930    1.000
    N10      N        0.32677    0.39280    0.68810    1.000
    N11      N        0.28217    0.31790    0.81690    1.000
    N12      N        0.87743    0.31650    0.18310    1.000
    O22      O        0.07894    0.37840    0.98770    1.000
    S4       S        0.31027    0.59290    0.62042    1.000
    C154     C        0.31993    0.47560    0.65930    1.000
    C155     C        0.28266    0.30910    0.88820    1.000
    H124     H        0.30530    0.27810    0.90940    1.000
    C156     C        0.25198    0.34280    0.93200    1.000
    H125     H        0.25420    0.33630    0.98130    1.000
    C157     C        0.21710    0.38740    0.90070    1.000
    C158     C        0.21571    0.39470    0.82750    1.000
    H126     H        0.19280    0.42200    0.80500    1.000
    C159     C        0.24866    0.36140    0.78730    1.000
    H127     H        0.24760    0.36930    0.73790    1.000
    C160     C        0.18409    0.42640    0.94360    1.000
    C161     C        0.15683    0.46510    0.97590    1.000
    C162     C        0.12585    0.51760    0.01810    1.000
    C163     C        0.13323    0.61680    0.05080    1.000
    H128     H        0.15830    0.64970    0.04520    1.000
    C164     C        0.10420    0.66860    0.09160    1.000
    H129     H        0.10990    0.73460    0.11440    1.000
    C165     C        0.06595    0.61920    0.09780    1.000
    H130     H        0.04580    0.65500    0.12340    1.000
    C166     C        0.05777    0.51920    0.06680    1.000
    C167     C        0.08760    0.46820    0.02630    1.000
    C168     C        0.01916    0.46840    0.07860    1.000
    C169     C        0.98726    0.43300    0.09510    1.000
    C170     C        0.94899    0.39210    0.12140    1.000
    C171     C        0.92388    0.46290    0.15900    1.000
    H131     H        0.93070    0.53640    0.16470    1.000
    C172     C        0.88861    0.42170    0.18780    1.000
    H132     H        0.87170    0.46990    0.21190    1.000
    C173     C        0.90120    0.25080    0.14430    1.000
    H133     H        0.89330    0.17830    0.13770    1.000
    C174     C        0.93701    0.28510    0.11340    1.000
    H134     H        0.95280    0.23610    0.08740    1.000
    C175     C        0.08500    0.28190    0.01280    1.000
    H135     H        0.11070    0.28210    0.03750    1.000
    H136     H        0.06430    0.26700    0.04820    1.000
    C176     C        0.08530    0.18720    0.95930    1.000
    H137     H        0.09410    0.12100    0.98350    1.000
    H138     H        0.10470    0.20330    0.92190    1.000
    C177     C        0.04530    0.16640    0.92600    1.000
    F118     F        0.03510    0.25710    0.88710    1.000
    F119     F        0.01700    0.17230    0.98040    1.000
    C178     C        0.04180    0.06540    0.88490    1.000
    F120     F        0.04610    0.98150    0.93270    1.000
    F121     F        0.07690    0.05480    0.84620    1.000
    C179     C        0.01120    0.03010    0.83440    1.000
    F122     F        0.02130    0.92500    0.80660    1.000
    F123     F        0.01390    0.09300    0.77080    1.000
    C180     C        0.96870    0.03000    0.85080    1.000
    F124     F        0.95820    0.13880    0.85340    1.000
    F125     F        0.96500    0.98510    0.91780    1.000
    C181     C        0.94060    0.97350    0.80680    1.000
    F126     F        0.94160    0.86130    0.82360    1.000
    F127     F        0.95040    0.96500    0.73590    1.000
    C182     C        0.89890    0.00970    0.81360    1.000
    F128     F        0.89360    0.10560    0.79000    1.000
    F129     F        0.87480    0.94500    0.78120    1.000
    F130     F        0.88530    0.00700    0.87730    1.000
    C183     C        0.79260    0.29970    0.57490    1.000
    H139     H        0.80350    0.24200    0.54490    1.000
    H140     H        0.76360    0.29050    0.57240    1.000
    C184     C        0.80250    0.25800    0.65120    1.000
    H141     H        0.78040    0.20790    0.65960    1.000
    H142     H        0.82560    0.21160    0.64210    1.000
    O23      O        0.79940    0.39840    0.53180    1.000
    H143     H        0.78960    0.38960    0.49190    1.000
    O24      O        0.81100    0.29600    0.72310    1.000
    H144     H        0.81460    0.25760    0.75090    1.000
    C185     C        0.73700    0.38000    0.46800    1.000
    H145     H        0.72100    0.34130    0.50430    1.000
    H146     H        0.72580    0.35480    0.42320    1.000
    C186     C        0.71900    0.49600    0.47300    1.000
    H147     H        0.72120    0.52020    0.42410    1.000
    H148     H        0.69080    0.48070    0.48040    1.000
    O25      O        0.77500    0.31900    0.47100    1.000
    H149     H        0.79230    0.35850    0.48850    1.000
    O26      O        0.72370    0.59900    0.51200    1.000
    H150     H        0.70150    0.62000    0.52570    1.000
    C187     C        0.58940    0.28270    0.97760    1.000
    C188     C        0.54530    0.34400    0.02600    1.000
    C189     C        0.69260    0.66200    0.57560    1.000
    C190     C        0.57580    0.29100    0.45640    1.000
    C191     C        0.51110    0.29500    0.07600    1.000
    C192     C        0.72750    0.74100    0.58500    1.000
    C193     C        0.53760    0.32270    0.41670    1.000
    C194     C        0.53820    0.28100    0.38500    1.000
    C195     C        0.52350    0.42950    0.38840    1.000
    C196     C        0.52660    0.37200    0.33920    1.000
    C197     C        0.48300    0.43720    0.35680    1.000
    C198     C        0.49790    0.44870    0.36900    1.000
    C199     C        0.46210    0.53110    0.32180    1.000
    C200     C        0.47740    0.54220    0.33230    1.000
    C201     C        0.41970    0.54960    0.31270    1.000
    C202     C        0.44020    0.56420    0.29210    1.000
    C203     C        0.40730    0.64200    0.26800    1.000
    C204     C        0.43050    0.66900    0.25920    1.000
    F131     F        0.40220    0.45400    0.28650    1.000
    F132     F        0.40780    0.53400    0.33500    1.000
    F133     F        0.41290    0.73270    0.29840    1.000
    F134     F        0.42660    0.74470    0.30520    1.000
    F135     F        0.41500    0.62900    0.20290    1.000
    F136     F        0.45880    0.71500    0.22710    1.000
    F137     F        0.36950    0.65200    0.26240    1.000
    F138     F        0.39500    0.67700    0.23600    1.000
    F139     F        0.50610    0.28930    0.46150    1.000
    F140     F        0.56660    0.31900    0.43500    1.000
    F141     F        0.53730    0.25090    0.35630    1.000
    F142     F        0.56700    0.28200    0.15100    1.000
    F143     F        0.54920    0.46040    0.33860    1.000
    F144     F        0.50900    0.32900    0.28000    1.000
    F145     F        0.52630    0.50490    0.44020    1.000
    F146     F        0.56120    0.42500    0.32400    1.000
    F147     F        0.45590    0.40550    0.41340    1.000
    F148     F        0.46330    0.37840    0.38910    1.000
    F149     F        0.48230    0.35370    0.30280    1.000
    F150     F        0.51950    0.50600    0.42600    1.000
    F151     F        0.47770    0.62040    0.35490    1.000
    F152     F        0.47480    0.61670    0.38910    1.000
    F153     F        0.47810    0.52900    0.25350    1.000
    F154     F        0.50730    0.59260    0.29450    1.000
    F155     F        0.40100    0.56400    0.37890    1.000
    F156     F        0.43530    0.48100    0.24280    1.000
    H151     H        0.61800    0.27760    0.96730    1.000
    H152     H        0.57360    0.26960    0.93480    1.000
    H153     H        0.54400    0.28830    0.98850    1.000
    H154     H        0.52990    0.40440    0.00620    1.000
    H155     H        0.70070    0.60330    0.60770    1.000
    H156     H        0.67160    0.70050    0.60140    1.000
    H157     H        0.64950    0.57130    0.54470    1.000
    H158     H        0.58700    0.36230    0.46870    1.000
    H159     H        0.59290    0.26410    0.41820    1.000
    H160     H        0.49920    0.34990    0.10700    1.000
    H161     H        0.49020    0.25670    0.04960    1.000
    H162     H        0.74650    0.69070    0.60750    1.000
    H163     H        0.73650    0.74360    0.53570    1.000
    H164     H        0.73150    0.33300    0.88100    1.000
    O27      O        0.66850    0.60100    0.52410    1.000
    O28      O        0.74460    0.84200    0.60930    1.000
    N13      N        0.67323    0.89280    0.18810    1.000
    N14      N        0.71783    0.81790    0.31690    1.000
    N15      N        0.12257    0.81650    0.68310    1.000
    O29      O        0.92106    0.87840    0.48770    1.000
    S5       S        0.68973    0.09290    0.12042    1.000
    C205     C        0.68007    0.97560    0.15930    1.000
    C206     C        0.71734    0.80910    0.38820    1.000
    H165     H        0.69470    0.77810    0.40940    1.000
    C207     C        0.74802    0.84280    0.43200    1.000
    H166     H        0.74580    0.83630    0.48130    1.000
    C208     C        0.78290    0.88740    0.40070    1.000
    C209     C        0.78429    0.89470    0.32750    1.000
    H167     H        0.80720    0.92200    0.30500    1.000
    C210     C        0.75134    0.86140    0.28730    1.000
    H168     H        0.75240    0.86930    0.23790    1.000
    C211     C        0.81591    0.92640    0.44360    1.000
    C212     C        0.84317    0.96510    0.47590    1.000
    C213     C        0.87415    0.01760    0.51810    1.000
    C214     C        0.86677    0.11680    0.55080    1.000
    H169     H        0.84170    0.14970    0.54520    1.000
    C215     C        0.89580    0.16860    0.59160    1.000
    H170     H        0.89010    0.23460    0.61440    1.000
    C216     C        0.93405    0.11920    0.59780    1.000
    H171     H        0.95420    0.15500    0.62340    1.000
    C217     C        0.94223    0.01920    0.56680    1.000
    C218     C        0.91240    0.96820    0.52630    1.000
    C219     C        0.98084    0.96840    0.57860    1.000
    C220     C        0.01274    0.93300    0.59510    1.000
    C221     C        0.05101    0.89210    0.62140    1.000
    C222     C        0.07612    0.96290    0.65900    1.000
    H172     H        0.06930    0.03640    0.66470    1.000
    C223     C        0.11139    0.92170    0.68780    1.000
    H173     H        0.12830    0.96990    0.71190    1.000
    C224     C        0.09880    0.75080    0.64430    1.000
    H174     H        0.10670    0.67830    0.63770    1.000
    C225     C        0.06299    0.78510    0.61340    1.000
    H175     H        0.04720    0.73610    0.58740    1.000
    C226     C        0.91500    0.78190    0.51280    1.000
    H176     H        0.88930    0.78210    0.53750    1.000
    H177     H        0.93570    0.76700    0.54820    1.000
    C227     C        0.91470    0.68720    0.45930    1.000
    H178     H        0.90590    0.62100    0.48350    1.000
    H179     H        0.89530    0.70330    0.42190    1.000
    C228     C        0.95470    0.66640    0.42600    1.000
    F157     F        0.96490    0.75710    0.38710    1.000
    F158     F        0.98300    0.67230    0.48040    1.000
    C229     C        0.95820    0.56540    0.38490    1.000
    F159     F        0.95390    0.48150    0.43270    1.000
    F160     F        0.92310    0.55480    0.34620    1.000
    C230     C        0.98880    0.53010    0.33440    1.000
    F161     F        0.97870    0.42500    0.30660    1.000
    F162     F        0.98610    0.59300    0.27080    1.000
    C231     C        0.03130    0.53000    0.35080    1.000
    F163     F        0.04180    0.63880    0.35340    1.000
    F164     F        0.03500    0.48510    0.41780    1.000
    C232     C        0.05940    0.47350    0.30680    1.000
    F165     F        0.05840    0.36130    0.32360    1.000
    F166     F        0.04960    0.46500    0.23590    1.000
    C233     C        0.10110    0.50970    0.31360    1.000
    F167     F        0.10640    0.60560    0.29000    1.000
    F168     F        0.12520    0.44500    0.28120    1.000
    F169     F        0.11470    0.50700    0.37730    1.000
    C234     C        0.20740    0.79970    0.07490    1.000
    H180     H        0.19650    0.74200    0.04490    1.000
    H181     H        0.23640    0.79050    0.07240    1.000
    C235     C        0.19750    0.75800    0.15120    1.000
    H182     H        0.21960    0.70790    0.15960    1.000
    H183     H        0.17440    0.71160    0.14210    1.000
    O30      O        0.20060    0.89840    0.03180    1.000
    H184     H        0.21040    0.88960    0.99190    1.000
    O31      O        0.18900    0.79600    0.22310    1.000
    H185     H        0.18540    0.75760    0.25090    1.000
    C236     C        0.26300    0.88000    0.96800    1.000
    H186     H        0.27900    0.84130    0.00430    1.000
    H187     H        0.27420    0.85480    0.92320    1.000
    C237     C        0.28100    0.99600    0.97300    1.000
    H188     H        0.27880    0.02020    0.92410    1.000
    H189     H        0.30920    0.98070    0.98040    1.000
    O32      O        0.22500    0.81900    0.97100    1.000
    H190     H        0.20770    0.85850    0.98850    1.000
    O33      O        0.27630    0.09900    0.01200    1.000
    H191     H        0.29850    0.12000    0.02570    1.000
    C238     C        0.41060    0.78270    0.47760    1.000
    C239     C        0.45470    0.84400    0.52600    1.000
    C240     C        0.30740    0.16200    0.07560    1.000
    C241     C        0.42420    0.79100    0.95640    1.000
    C242     C        0.48890    0.79500    0.57600    1.000
    C243     C        0.27250    0.24100    0.08500    1.000
    C244     C        0.46240    0.82270    0.91670    1.000
    C245     C        0.46180    0.78100    0.88500    1.000
    C246     C        0.47650    0.92950    0.88840    1.000
    C247     C        0.47340    0.87200    0.83920    1.000
    C248     C        0.51700    0.93720    0.85680    1.000
    C249     C        0.50210    0.94870    0.86900    1.000
    C250     C        0.53790    0.03110    0.82180    1.000
    C251     C        0.52260    0.04220    0.83230    1.000
    C252     C        0.58030    0.04960    0.81270    1.000
    C253     C        0.55980    0.06420    0.79210    1.000
    C254     C        0.59270    0.14200    0.76800    1.000
    C255     C        0.56950    0.16900    0.75920    1.000
    F170     F        0.59780    0.95400    0.78650    1.000
    F171     F        0.59220    0.03400    0.83500    1.000
    F172     F        0.58710    0.23270    0.79840    1.000
    F173     F        0.57340    0.24470    0.80520    1.000
    F174     F        0.58500    0.12900    0.70290    1.000
    F175     F        0.54120    0.21500    0.72710    1.000
    F176     F        0.63050    0.15200    0.76240    1.000
    F177     F        0.60500    0.17700    0.73600    1.000
    F178     F        0.49390    0.78930    0.96150    1.000
    F179     F        0.43340    0.81900    0.93500    1.000
    F180     F        0.46270    0.75090    0.85630    1.000
    F181     F        0.43300    0.78200    0.65100    1.000
    F182     F        0.45080    0.96040    0.83860    1.000
    F183     F        0.49100    0.82900    0.78000    1.000
    F184     F        0.47370    0.00490    0.94020    1.000
    F185     F        0.43880    0.92500    0.82400    1.000
    F186     F        0.54410    0.90550    0.91340    1.000
    F187     F        0.53670    0.87840    0.88910    1.000
    F188     F        0.51770    0.85370    0.80280    1.000
    F189     F        0.48050    0.00600    0.92600    1.000
    F190     F        0.52230    0.12040    0.85490    1.000
    F191     F        0.52520    0.11670    0.88910    1.000
    F192     F        0.52190    0.02900    0.75350    1.000
    F193     F        0.49270    0.09260    0.79450    1.000
    F194     F        0.59900    0.06400    0.87890    1.000
    F195     F        0.56470    0.98100    0.74280    1.000
    H192     H        0.38200    0.77760    0.46730    1.000
    H193     H        0.42640    0.76960    0.43480    1.000
    H194     H        0.45600    0.78830    0.48850    1.000
    H195     H        0.47010    0.90440    0.50620    1.000
    H196     H        0.29930    0.10330    0.10770    1.000
    H197     H        0.32840    0.20050    0.10140    1.000
    H198     H        0.35050    0.07130    0.04470    1.000
    H199     H        0.41300    0.86230    0.96870    1.000
    H200     H        0.40710    0.76410    0.91820    1.000
    H201     H        0.50080    0.84990    0.60700    1.000
    H202     H        0.50980    0.75670    0.54960    1.000
    H203     H        0.25350    0.19070    0.10750    1.000
    H204     H        0.26350    0.24360    0.03570    1.000
    H205     H        0.26850    0.83300    0.38100    1.000
    O34      O        0.33150    0.10100    0.02410    1.000
    O35      O        0.25540    0.34200    0.10930    1.000
    N16      N        0.82677    0.10720    0.18810    1.000
    N17      N        0.78217    0.18210    0.31690    1.000
    N18      N        0.37743    0.18350    0.68310    1.000
    O36      O        0.57894    0.12160    0.48770    1.000
    S6       S        0.81027    0.90710    0.12042    1.000
    C256     C        0.81993    0.02440    0.15930    1.000
    C257     C        0.78266    0.19090    0.38820    1.000
    H206     H        0.80530    0.22190    0.40940    1.000
    C258     C        0.75198    0.15720    0.43200    1.000
    H207     H        0.75420    0.16370    0.48130    1.000
    C259     C        0.71710    0.11260    0.40070    1.000
    C260     C        0.71571    0.10530    0.32750    1.000
    H208     H        0.69280    0.07800    0.30500    1.000
    C261     C        0.74866    0.13860    0.28730    1.000
    H209     H        0.74760    0.13070    0.23790    1.000
    C262     C        0.68409    0.07360    0.44360    1.000
    C263     C        0.65683    0.03490    0.47590    1.000
    C264     C        0.62585    0.98240    0.51810    1.000
    C265     C        0.63323    0.88320    0.55080    1.000
    H210     H        0.65830    0.85030    0.54520    1.000
    C266     C        0.60420    0.83140    0.59160    1.000
    H211     H        0.60990    0.76540    0.61440    1.000
    C267     C        0.56595    0.88080    0.59780    1.000
    H212     H        0.54580    0.84500    0.62340    1.000
    C268     C        0.55777    0.98080    0.56680    1.000
    C269     C        0.58760    0.03180    0.52630    1.000
    C270     C        0.51916    0.03160    0.57860    1.000
    C271     C        0.48726    0.06700    0.59510    1.000
    C272     C        0.44899    0.10790    0.62140    1.000
    C273     C        0.42388    0.03710    0.65900    1.000
    H213     H        0.43070    0.96360    0.66470    1.000
    C274     C        0.38861    0.07830    0.68780    1.000
    H214     H        0.37170    0.03010    0.71190    1.000
    C275     C        0.40120    0.24920    0.64430    1.000
    H215     H        0.39330    0.32170    0.63770    1.000
    C276     C        0.43701    0.21490    0.61340    1.000
    H216     H        0.45280    0.26390    0.58740    1.000
    C277     C        0.58500    0.21810    0.51280    1.000
    H217     H        0.61070    0.21790    0.53750    1.000
    H218     H        0.56430    0.23300    0.54820    1.000
    C278     C        0.58530    0.31280    0.45930    1.000
    H219     H        0.59410    0.37900    0.48350    1.000
    H220     H        0.60470    0.29670    0.42190    1.000
    C279     C        0.54530    0.33360    0.42600    1.000
    F196     F        0.53510    0.24290    0.38710    1.000
    F197     F        0.51700    0.32770    0.48040    1.000
    C280     C        0.54180    0.43460    0.38490    1.000
    F198     F        0.54610    0.51850    0.43270    1.000
    F199     F        0.57690    0.44520    0.34620    1.000
    C281     C        0.51120    0.46990    0.33440    1.000
    F200     F        0.52130    0.57500    0.30660    1.000
    F201     F        0.51390    0.40700    0.27080    1.000
    C282     C        0.46870    0.47000    0.35080    1.000
    F202     F        0.45820    0.36120    0.35340    1.000
    F203     F        0.46500    0.51490    0.41780    1.000
    C283     C        0.44060    0.52650    0.30680    1.000
    F204     F        0.44160    0.63870    0.32360    1.000
    F205     F        0.45040    0.53500    0.23590    1.000
    C284     C        0.39890    0.49030    0.31360    1.000
    F206     F        0.39360    0.39440    0.29000    1.000
    F207     F        0.37480    0.55500    0.28120    1.000
    F208     F        0.38530    0.49300    0.37730    1.000
    C285     C        0.29260    0.20030    0.07490    1.000
    H221     H        0.30350    0.25800    0.04490    1.000
    H222     H        0.26360    0.20950    0.07240    1.000
    C286     C        0.30250    0.24200    0.15120    1.000
    H223     H        0.28040    0.29210    0.15960    1.000
    H224     H        0.32560    0.28840    0.14210    1.000
    O37      O        0.29940    0.10160    0.03180    1.000
    H225     H        0.28960    0.11040    0.99190    1.000
    O38      O        0.31100    0.20400    0.22310    1.000
    H226     H        0.31460    0.24240    0.25090    1.000
    C287     C        0.23700    0.12000    0.96800    1.000
    H227     H        0.22100    0.15870    0.00430    1.000
    H228     H        0.22580    0.14520    0.92320    1.000
    C288     C        0.21900    0.00400    0.97300    1.000
    H229     H        0.22120    0.97980    0.92410    1.000
    H230     H        0.19080    0.01930    0.98040    1.000
    O39      O        0.27500    0.18100    0.97100    1.000
    H231     H        0.29230    0.14150    0.98850    1.000
    O40      O        0.22370    0.90100    0.01200    1.000
    H232     H        0.20150    0.88000    0.02570    1.000
    C289     C        0.08940    0.21730    0.47760    1.000
    C290     C        0.04530    0.15600    0.52600    1.000
    C291     C        0.19260    0.83800    0.07560    1.000
    C292     C        0.07580    0.20900    0.95640    1.000
    C293     C        0.01110    0.20500    0.57600    1.000
    C294     C        0.22750    0.75900    0.08500    1.000
    C295     C        0.03760    0.17730    0.91670    1.000
    C296     C        0.03820    0.21900    0.88500    1.000
    C297     C        0.02350    0.07050    0.88840    1.000
    C298     C        0.02660    0.12800    0.83920    1.000
    C299     C        0.98300    0.06280    0.85680    1.000
    C300     C        0.99790    0.05130    0.86900    1.000
    C301     C        0.96210    0.96890    0.82180    1.000
    C302     C        0.97740    0.95780    0.83230    1.000
    C303     C        0.91970    0.95040    0.81270    1.000
    C304     C        0.94020    0.93580    0.79210    1.000
    C305     C        0.90730    0.85800    0.76800    1.000
    C306     C        0.93050    0.83100    0.75920    1.000
    F209     F        0.90220    0.04600    0.78650    1.000
    F210     F        0.90780    0.96600    0.83500    1.000
    F211     F        0.91290    0.76730    0.79840    1.000
    F212     F        0.92660    0.75530    0.80520    1.000
    F213     F        0.91500    0.87100    0.70290    1.000
    F214     F        0.95880    0.78500    0.72710    1.000
    F215     F        0.86950    0.84800    0.76240    1.000
    F216     F        0.89500    0.82300    0.73600    1.000
    F217     F        0.00610    0.21070    0.96150    1.000
    F218     F        0.06660    0.18100    0.93500    1.000
    F219     F        0.03730    0.24910    0.85630    1.000
    F220     F        0.06700    0.21800    0.65100    1.000
    F221     F        0.04920    0.03960    0.83860    1.000
    F222     F        0.00900    0.17100    0.78000    1.000
    F223     F        0.02630    0.99510    0.94020    1.000
    F224     F        0.06120    0.07500    0.82400    1.000
    F225     F        0.95590    0.09450    0.91340    1.000
    F226     F        0.96330    0.12160    0.88910    1.000
    F227     F        0.98230    0.14630    0.80280    1.000
    F228     F        0.01950    0.99400    0.92600    1.000
    F229     F        0.97770    0.87960    0.85490    1.000
    F230     F        0.97480    0.88330    0.88910    1.000
    F231     F        0.97810    0.97100    0.75350    1.000
    F232     F        0.00730    0.90740    0.79450    1.000
    F233     F        0.90100    0.93600    0.87890    1.000
    F234     F        0.93530    0.01900    0.74280    1.000
    H233     H        0.11800    0.22240    0.46730    1.000
    H234     H        0.07360    0.23040    0.43480    1.000
    H235     H        0.04400    0.21170    0.48850    1.000
    H236     H        0.02990    0.09560    0.50620    1.000
    H237     H        0.20070    0.89670    0.10770    1.000
    H238     H        0.17160    0.79950    0.10140    1.000
    H239     H        0.14950    0.92870    0.04470    1.000
    H240     H        0.08700    0.13770    0.96870    1.000
    H241     H        0.09290    0.23590    0.91820    1.000
    H242     H        0.99920    0.15010    0.60700    1.000
    H243     H        0.99020    0.24330    0.54960    1.000
    H244     H        0.24650    0.80930    0.10750    1.000
    H245     H        0.23650    0.75640    0.03570    1.000
    H246     H        0.23150    0.16700    0.38100    1.000
    O41      O        0.16850    0.89900    0.02410    1.000
    O42      O        0.24460    0.65800    0.10930    1.000
    N19      N        0.82677    0.39280    0.31190    1.000
    N20      N        0.78217    0.31790    0.18310    1.000
    N21      N        0.37743    0.31650    0.81690    1.000
    O43      O        0.57894    0.37840    0.01230    1.000
    S7       S        0.81027    0.59290    0.37958    1.000
    C307     C        0.81993    0.47560    0.34070    1.000
    C308     C        0.78266    0.30910    0.11180    1.000
    H247     H        0.80530    0.27810    0.09060    1.000
    C309     C        0.75198    0.34280    0.06800    1.000
    H248     H        0.75420    0.33630    0.01870    1.000
    C310     C        0.71710    0.38740    0.09930    1.000
    C311     C        0.71571    0.39470    0.17250    1.000
    H249     H        0.69280    0.42200    0.19500    1.000
    C312     C        0.74866    0.36140    0.21270    1.000
    H250     H        0.74760    0.36930    0.26210    1.000
    C313     C        0.68409    0.42640    0.05640    1.000
    C314     C        0.65683    0.46510    0.02410    1.000
    C315     C        0.62585    0.51760    0.98190    1.000
    C316     C        0.63323    0.61680    0.94920    1.000
    H251     H        0.65830    0.64970    0.95480    1.000
    C317     C        0.60420    0.66860    0.90840    1.000
    H252     H        0.60990    0.73460    0.88560    1.000
    C318     C        0.56595    0.61920    0.90220    1.000
    H253     H        0.54580    0.65500    0.87660    1.000
    C319     C        0.55777    0.51920    0.93320    1.000
    C320     C        0.58760    0.46820    0.97370    1.000
    C321     C        0.51916    0.46840    0.92140    1.000
    C322     C        0.48726    0.43300    0.90490    1.000
    C323     C        0.44899    0.39210    0.87860    1.000
    C324     C        0.42388    0.46290    0.84100    1.000
    H254     H        0.43070    0.53640    0.83530    1.000
    C325     C        0.38861    0.42170    0.81220    1.000
    H255     H        0.37170    0.46990    0.78810    1.000
    C326     C        0.40120    0.25080    0.85570    1.000
    H256     H        0.39330    0.17830    0.86230    1.000
    C327     C        0.43701    0.28510    0.88660    1.000
    H257     H        0.45280    0.23610    0.91260    1.000
    C328     C        0.58500    0.28190    0.98720    1.000
    H258     H        0.61070    0.28210    0.96250    1.000
    H259     H        0.56430    0.26700    0.95180    1.000
    C329     C        0.58530    0.18720    0.04070    1.000
    H260     H        0.59410    0.12100    0.01650    1.000
    H261     H        0.60470    0.20330    0.07810    1.000
    C330     C        0.54530    0.16640    0.07400    1.000
    F235     F        0.53510    0.25710    0.11290    1.000
    F236     F        0.51700    0.17230    0.01960    1.000
    C331     C        0.54180    0.06540    0.11510    1.000
    F237     F        0.54610    0.98150    0.06730    1.000
    F238     F        0.57690    0.05480    0.15380    1.000
    C332     C        0.51120    0.03010    0.16560    1.000
    F239     F        0.52130    0.92500    0.19340    1.000
    F240     F        0.51390    0.09300    0.22920    1.000
    C333     C        0.46870    0.03000    0.14920    1.000
    F241     F        0.45820    0.13880    0.14660    1.000
    F242     F        0.46500    0.98510    0.08220    1.000
    C334     C        0.44060    0.97350    0.19320    1.000
    F243     F        0.44160    0.86130    0.17640    1.000
    F244     F        0.45040    0.96500    0.26410    1.000
    C335     C        0.39890    0.00970    0.18640    1.000
    F245     F        0.39360    0.10560    0.21000    1.000
    F246     F        0.37480    0.94500    0.21880    1.000
    F247     F        0.38530    0.00700    0.12270    1.000
    C336     C        0.29260    0.29970    0.42510    1.000
    H262     H        0.30350    0.24200    0.45510    1.000
    H263     H        0.26360    0.29050    0.42760    1.000
    C337     C        0.30250    0.25800    0.34880    1.000
    H264     H        0.28040    0.20790    0.34040    1.000
    H265     H        0.32560    0.21160    0.35790    1.000
    O44      O        0.29940    0.39840    0.46820    1.000
    H266     H        0.28960    0.38960    0.50810    1.000
    O45      O        0.31100    0.29600    0.27690    1.000
    H267     H        0.31460    0.25760    0.24910    1.000
    C338     C        0.23700    0.38000    0.53200    1.000
    H268     H        0.22100    0.34130    0.49570    1.000
    H269     H        0.22580    0.35480    0.57680    1.000
    C339     C        0.21900    0.49600    0.52700    1.000
    H270     H        0.22120    0.52020    0.57590    1.000
    H271     H        0.19080    0.48070    0.51960    1.000
    O46      O        0.27500    0.31900    0.52900    1.000
    H272     H        0.29230    0.35850    0.51150    1.000
    O47      O        0.22370    0.59900    0.48800    1.000
    H273     H        0.20150    0.62000    0.47430    1.000
    C340     C        0.08940    0.28270    0.02240    1.000
    C341     C        0.04530    0.34400    0.97400    1.000
    C342     C        0.19260    0.66200    0.42440    1.000
    C343     C        0.07580    0.29100    0.54360    1.000
    C344     C        0.01110    0.29500    0.92400    1.000
    C345     C        0.22750    0.74100    0.41500    1.000
    C346     C        0.03760    0.32270    0.58330    1.000
    C347     C        0.03820    0.28100    0.61500    1.000
    C348     C        0.02350    0.42950    0.61160    1.000
    C349     C        0.02660    0.37200    0.66080    1.000
    C350     C        0.98300    0.43720    0.64320    1.000
    C351     C        0.99790    0.44870    0.63100    1.000
    C352     C        0.96210    0.53110    0.67820    1.000
    C353     C        0.97740    0.54220    0.66770    1.000
    C354     C        0.91970    0.54960    0.68730    1.000
    C355     C        0.94020    0.56420    0.70790    1.000
    C356     C        0.90730    0.64200    0.73200    1.000
    C357     C        0.93050    0.66900    0.74080    1.000
    F248     F        0.90220    0.45400    0.71350    1.000
    F249     F        0.90780    0.53400    0.66500    1.000
    F250     F        0.91290    0.73270    0.70160    1.000
    F251     F        0.92660    0.74470    0.69480    1.000
    F252     F        0.91500    0.62900    0.79710    1.000
    F253     F        0.95880    0.71500    0.77290    1.000
    F254     F        0.86950    0.65200    0.73760    1.000
    F255     F        0.89500    0.67700    0.76400    1.000
    F256     F        0.00610    0.28930    0.53850    1.000
    F257     F        0.06660    0.31900    0.56500    1.000
    F258     F        0.03730    0.25090    0.64370    1.000
    F259     F        0.06700    0.28200    0.84900    1.000
    F260     F        0.04920    0.46040    0.66140    1.000
    F261     F        0.00900    0.32900    0.72000    1.000
    F262     F        0.02630    0.50490    0.55980    1.000
    F263     F        0.06120    0.42500    0.67600    1.000
    F264     F        0.95590    0.40550    0.58660    1.000
    F265     F        0.96330    0.37840    0.61090    1.000
    F266     F        0.98230    0.35370    0.69720    1.000
    F267     F        0.01950    0.50600    0.57400    1.000
    F268     F        0.97770    0.62040    0.64510    1.000
    F269     F        0.97480    0.61670    0.61090    1.000
    F270     F        0.97810    0.52900    0.74650    1.000
    F271     F        0.00730    0.59260    0.70550    1.000
    F272     F        0.90100    0.56400    0.62110    1.000
    F273     F        0.93530    0.48100    0.75720    1.000
    H274     H        0.11800    0.27760    0.03270    1.000
    H275     H        0.07360    0.26960    0.06520    1.000
    H276     H        0.04400    0.28830    0.01150    1.000
    H277     H        0.02990    0.40440    0.99380    1.000
    H278     H        0.20070    0.60330    0.39230    1.000
    H279     H        0.17160    0.70050    0.39860    1.000
    H280     H        0.14950    0.57130    0.45530    1.000
    H281     H        0.08700    0.36230    0.53130    1.000
    H282     H        0.09290    0.26410    0.58180    1.000
    H283     H        0.99920    0.34990    0.89300    1.000
    H284     H        0.99020    0.25670    0.95040    1.000
    H285     H        0.24650    0.69070    0.39250    1.000
    H286     H        0.23650    0.74360    0.46430    1.000
    H287     H        0.23150    0.33300    0.11900    1.000
    O48      O        0.16850    0.60100    0.47590    1.000
    O49      O        0.24460    0.84200    0.39070    1.000
    N22      N        0.67323    0.60720    0.31190    1.000
    N23      N        0.71783    0.68210    0.18310    1.000
    N24      N        0.12257    0.68350    0.81690    1.000
    O50      O        0.92106    0.62160    0.01230    1.000
    S8       S        0.68973    0.40710    0.37958    1.000
    C358     C        0.68007    0.52440    0.34070    1.000
    C359     C        0.71734    0.69090    0.11180    1.000
    H288     H        0.69470    0.72190    0.09060    1.000
    C360     C        0.74802    0.65720    0.06800    1.000
    H289     H        0.74580    0.66370    0.01870    1.000
    C361     C        0.78290    0.61260    0.09930    1.000
    C362     C        0.78429    0.60530    0.17250    1.000
    H290     H        0.80720    0.57800    0.19500    1.000
    C363     C        0.75134    0.63860    0.21270    1.000
    H291     H        0.75240    0.63070    0.26210    1.000
    C364     C        0.81591    0.57360    0.05640    1.000
    C365     C        0.84317    0.53490    0.02410    1.000
    C366     C        0.87415    0.48240    0.98190    1.000
    C367     C        0.86677    0.38320    0.94920    1.000
    H292     H        0.84170    0.35030    0.95480    1.000
    C368     C        0.89580    0.33140    0.90840    1.000
    H293     H        0.89010    0.26540    0.88560    1.000
    C369     C        0.93405    0.38080    0.90220    1.000
    H294     H        0.95420    0.34500    0.87660    1.000
    C370     C        0.94223    0.48080    0.93320    1.000
    C371     C        0.91240    0.53180    0.97370    1.000
    C372     C        0.98084    0.53160    0.92140    1.000
    C373     C        0.01274    0.56700    0.90490    1.000
    C374     C        0.05101    0.60790    0.87860    1.000
    C375     C        0.07612    0.53710    0.84100    1.000
    H295     H        0.06930    0.46360    0.83530    1.000
    C376     C        0.11139    0.57830    0.81220    1.000
    H296     H        0.12830    0.53010    0.78810    1.000
    C377     C        0.09880    0.74920    0.85570    1.000
    H297     H        0.10670    0.82170    0.86230    1.000
    C378     C        0.06299    0.71490    0.88660    1.000
    H298     H        0.04720    0.76390    0.91260    1.000
    C379     C        0.91500    0.71810    0.98720    1.000
    H299     H        0.88930    0.71790    0.96250    1.000
    H300     H        0.93570    0.73300    0.95180    1.000
    C380     C        0.91470    0.81280    0.04070    1.000
    H301     H        0.90590    0.87900    0.01650    1.000
    H302     H        0.89530    0.79670    0.07810    1.000
    C381     C        0.95470    0.83360    0.07400    1.000
    F274     F        0.96490    0.74290    0.11290    1.000
    F275     F        0.98300    0.82770    0.01960    1.000
    C382     C        0.95820    0.93460    0.11510    1.000
    F276     F        0.95390    0.01850    0.06730    1.000
    F277     F        0.92310    0.94520    0.15380    1.000
    C383     C        0.98880    0.96990    0.16560    1.000
    F278     F        0.97870    0.07500    0.19340    1.000
    F279     F        0.98610    0.90700    0.22920    1.000
    C384     C        0.03130    0.97000    0.14920    1.000
    F280     F        0.04180    0.86120    0.14660    1.000
    F281     F        0.03500    0.01490    0.08220    1.000
    C385     C        0.05940    0.02650    0.19320    1.000
    F282     F        0.05840    0.13870    0.17640    1.000
    F283     F        0.04960    0.03500    0.26410    1.000
    C386     C        0.10110    0.99030    0.18640    1.000
    F284     F        0.10640    0.89440    0.21000    1.000
    F285     F        0.12520    0.05500    0.21880    1.000
    F286     F        0.11470    0.99300    0.12270    1.000
    C387     C        0.20740    0.70030    0.42510    1.000
    H303     H        0.19650    0.75800    0.45510    1.000
    H304     H        0.23640    0.70950    0.42760    1.000
    C388     C        0.19750    0.74200    0.34880    1.000
    H305     H        0.21960    0.79210    0.34040    1.000
    H306     H        0.17440    0.78840    0.35790    1.000
    O51      O        0.20060    0.60160    0.46820    1.000
    H307     H        0.21040    0.61040    0.50810    1.000
    O52      O        0.18900    0.70400    0.27690    1.000
    H308     H        0.18540    0.74240    0.24910    1.000
    C389     C        0.26300    0.62000    0.53200    1.000
    H309     H        0.27900    0.65870    0.49570    1.000
    H310     H        0.27420    0.64520    0.57680    1.000
    C390     C        0.28100    0.50400    0.52700    1.000
    H311     H        0.27880    0.47980    0.57590    1.000
    H312     H        0.30920    0.51930    0.51960    1.000
    O53      O        0.22500    0.68100    0.52900    1.000
    H313     H        0.20770    0.64150    0.51150    1.000
    O54      O        0.27630    0.40100    0.48800    1.000
    H314     H        0.29850    0.38000    0.47430    1.000
    C391     C        0.41060    0.71730    0.02240    1.000
    C392     C        0.45470    0.65600    0.97400    1.000
    C393     C        0.30740    0.33800    0.42440    1.000
    C394     C        0.42420    0.70900    0.54360    1.000
    C395     C        0.48890    0.70500    0.92400    1.000
    C396     C        0.27250    0.25900    0.41500    1.000
    C397     C        0.46240    0.67730    0.58330    1.000
    C398     C        0.46180    0.71900    0.61500    1.000
    C399     C        0.47650    0.57050    0.61160    1.000
    C400     C        0.47340    0.62800    0.66080    1.000
    C401     C        0.51700    0.56280    0.64320    1.000
    C402     C        0.50210    0.55130    0.63100    1.000
    C403     C        0.53790    0.46890    0.67820    1.000
    C404     C        0.52260    0.45780    0.66770    1.000
    C405     C        0.58030    0.45040    0.68730    1.000
    C406     C        0.55980    0.43580    0.70790    1.000
    C407     C        0.59270    0.35800    0.73200    1.000
    C408     C        0.56950    0.33100    0.74080    1.000
    F287     F        0.59780    0.54600    0.71350    1.000
    F288     F        0.59220    0.46600    0.66500    1.000
    F289     F        0.58710    0.26730    0.70160    1.000
    F290     F        0.57340    0.25530    0.69480    1.000
    F291     F        0.58500    0.37100    0.79710    1.000
    F292     F        0.54120    0.28500    0.77290    1.000
    F293     F        0.63050    0.34800    0.73760    1.000
    F294     F        0.60500    0.32300    0.76400    1.000
    F295     F        0.49390    0.71070    0.53850    1.000
    F296     F        0.43340    0.68100    0.56500    1.000
    F297     F        0.46270    0.74910    0.64370    1.000
    F298     F        0.43300    0.71800    0.84900    1.000
    F299     F        0.45080    0.53960    0.66140    1.000
    F300     F        0.49100    0.67100    0.72000    1.000
    F301     F        0.47370    0.49510    0.55980    1.000
    F302     F        0.43880    0.57500    0.67600    1.000
    F303     F        0.54410    0.59450    0.58660    1.000
    F304     F        0.53670    0.62160    0.61090    1.000
    F305     F        0.51770    0.64630    0.69720    1.000
    F306     F        0.48050    0.49400    0.57400    1.000
    F307     F        0.52230    0.37960    0.64510    1.000
    F308     F        0.52520    0.38330    0.61090    1.000
    F309     F        0.52190    0.47100    0.74650    1.000
    F310     F        0.49270    0.40740    0.70550    1.000
    F311     F        0.59900    0.43600    0.62110    1.000
    F312     F        0.56470    0.51900    0.75720    1.000
    H315     H        0.38200    0.72240    0.03270    1.000
    H316     H        0.42640    0.73040    0.06520    1.000
    H317     H        0.45600    0.71170    0.01150    1.000
    H318     H        0.47010    0.59560    0.99380    1.000
    H319     H        0.29930    0.39670    0.39230    1.000
    H320     H        0.32840    0.29950    0.39860    1.000
    H321     H        0.35050    0.42870    0.45530    1.000
    H322     H        0.41300    0.63770    0.53130    1.000
    H323     H        0.40710    0.73590    0.58180    1.000
    H324     H        0.50080    0.65010    0.89300    1.000
    H325     H        0.50980    0.74330    0.95040    1.000
    H326     H        0.25350    0.30930    0.39250    1.000
    H327     H        0.26350    0.25640    0.46430    1.000
    H328     H        0.26850    0.66700    0.11900    1.000
    O55      O        0.33150    0.39900    0.47590    1.000
    O56      O        0.25540    0.15800    0.39070    1.000
    Co1      Co       0.32888    0.25000    0.75000    1.000
    Co2      Co       0.17112    0.75000    0.75000    1.000
    Co3      Co       0.67112    0.75000    0.25000    1.000
    Co4      Co       0.82888    0.25000    0.25000    1.000
