# CIF file generated by openbabel 3.1.0, see https://openbabel.org
data_I
_chemical_name_common 'OKIYAJ_charged'
_cell_length_a 15.88
_cell_length_b 15.88
_cell_length_c 21.505
_cell_angle_alpha 90
_cell_angle_beta 90
_cell_angle_gamma 90
_space_group_name_H-M_alt 'P 1'
_space_group_name_Hall 'P 1'
loop_
    _symmetry_equiv_pos_as_xyz
    x,y,z
loop_
    _atom_site_label
    _atom_site_type_symbol
    _atom_site_fract_x
    _atom_site_fract_y
    _atom_site_fract_z
    _atom_site_occupancy
    Cd1      Cd       0.44115    0.55885    0.25000    1.000
    Cd2      Cd       0.55885    0.44115    0.75000    1.000
    Cd3      Cd       0.94115    0.94115    0.50000    1.000
    Cd4      Cd       0.05885    0.05885    0.00000    1.000
    H1       H        0.76830    0.86000    0.46110    1.000
    H2       H        0.71070    0.75860    0.39670    1.000
    H3       H        0.91080    0.78530    0.28250    1.000
    H4       H        0.95970    0.88930    0.34900    1.000
    H5       H        0.69490    0.63870    0.36260    1.000
    H6       H        0.70040    0.49330    0.20880    1.000
    H7       H        0.79770    0.58580    0.16440    1.000
    H8       H        0.84830    0.70020    0.22010    1.000
    H9       H        0.45040    0.37540    0.45850    1.000
    H10      H        0.43060    0.26280    0.52680    1.000
    H11      H        0.53290    0.15900    0.53680    1.000
    H12      H        0.67430    0.27610    0.40800    1.000
    H13      H        0.65120    0.09920    0.56420    1.000
    H14      H        0.76300    0.00890    0.57500    1.000
    H15      H        0.84040    0.05860    0.40700    1.000
    H16      H        0.73170    0.15320    0.39170    1.000
    H17      H        0.75430    0.47350    0.39400    1.000
    H18      H        0.75850    0.39770    0.35420    1.000
    H19      H        0.23170    0.14000    0.96110    1.000
    H20      H        0.28930    0.24140    0.89670    1.000
    H21      H        0.08920    0.21470    0.78250    1.000
    H22      H        0.04030    0.11070    0.84900    1.000
    H23      H        0.30510    0.36130    0.86260    1.000
    H24      H        0.29960    0.50670    0.70880    1.000
    H25      H        0.20230    0.41420    0.66440    1.000
    H26      H        0.15170    0.29980    0.72010    1.000
    H27      H        0.54960    0.62460    0.95850    1.000
    H28      H        0.56940    0.73720    0.02680    1.000
    H29      H        0.46710    0.84100    0.03680    1.000
    H30      H        0.32570    0.72390    0.90800    1.000
    H31      H        0.34880    0.90080    0.06420    1.000
    H32      H        0.23700    0.99110    0.07500    1.000
    H33      H        0.15960    0.94140    0.90700    1.000
    H34      H        0.26830    0.84680    0.89170    1.000
    H35      H        0.24570    0.52650    0.89400    1.000
    H36      H        0.24150    0.60230    0.85420    1.000
    H37      H        0.64000    0.26830    0.71110    1.000
    H38      H        0.74140    0.21070    0.64670    1.000
    H39      H        0.71470    0.41080    0.53250    1.000
    H40      H        0.61070    0.45970    0.59900    1.000
    H41      H        0.86130    0.19490    0.61260    1.000
    H42      H        0.00670    0.20040    0.45880    1.000
    H43      H        0.91420    0.29770    0.41440    1.000
    H44      H        0.79980    0.34830    0.47010    1.000
    H45      H        0.12460    0.95040    0.70850    1.000
    H46      H        0.23720    0.93060    0.77680    1.000
    H47      H        0.34100    0.03290    0.78680    1.000
    H48      H        0.22390    0.17430    0.65800    1.000
    H49      H        0.40080    0.15120    0.81420    1.000
    H50      H        0.49110    0.26300    0.82500    1.000
    H51      H        0.44140    0.34040    0.65700    1.000
    H52      H        0.34680    0.23170    0.64170    1.000
    H53      H        0.02650    0.25430    0.64400    1.000
    H54      H        0.10230    0.25850    0.60420    1.000
    H55      H        0.36000    0.73170    0.21110    1.000
    H56      H        0.25860    0.78930    0.14670    1.000
    H57      H        0.28530    0.58920    0.03250    1.000
    H58      H        0.38930    0.54030    0.09900    1.000
    H59      H        0.13870    0.80510    0.11260    1.000
    H60      H        0.99330    0.79960    0.95880    1.000
    H61      H        0.08580    0.70230    0.91440    1.000
    H62      H        0.20020    0.65170    0.97010    1.000
    H63      H        0.87540    0.04960    0.20850    1.000
    H64      H        0.76280    0.06940    0.27680    1.000
    H65      H        0.65900    0.96710    0.28680    1.000
    H66      H        0.77610    0.82570    0.15800    1.000
    H67      H        0.59920    0.84880    0.31420    1.000
    H68      H        0.50890    0.73700    0.32500    1.000
    H69      H        0.55860    0.65960    0.15700    1.000
    H70      H        0.65320    0.76830    0.14170    1.000
    H71      H        0.97350    0.74570    0.14400    1.000
    H72      H        0.89770    0.74150    0.10420    1.000
    H73      H        0.73170    0.36000    0.78890    1.000
    H74      H        0.78930    0.25860    0.85330    1.000
    H75      H        0.58920    0.28530    0.96750    1.000
    H76      H        0.54030    0.38930    0.90100    1.000
    H77      H        0.80510    0.13870    0.88740    1.000
    H78      H        0.79960    0.99330    0.04120    1.000
    H79      H        0.70230    0.08580    0.08560    1.000
    H80      H        0.65170    0.20020    0.02990    1.000
    H81      H        0.04960    0.87540    0.79150    1.000
    H82      H        0.06940    0.76280    0.72320    1.000
    H83      H        0.96710    0.65900    0.71320    1.000
    H84      H        0.82570    0.77610    0.84200    1.000
    H85      H        0.84880    0.59920    0.68580    1.000
    H86      H        0.73700    0.50890    0.67500    1.000
    H87      H        0.65960    0.55860    0.84300    1.000
    H88      H        0.76830    0.65320    0.85830    1.000
    H89      H        0.74570    0.97350    0.85600    1.000
    H90      H        0.74150    0.89770    0.89580    1.000
    H91      H        0.26830    0.64000    0.28890    1.000
    H92      H        0.21070    0.74140    0.35330    1.000
    H93      H        0.41080    0.71470    0.46750    1.000
    H94      H        0.45970    0.61070    0.40100    1.000
    H95      H        0.19490    0.86130    0.38740    1.000
    H96      H        0.20040    0.00670    0.54120    1.000
    H97      H        0.29770    0.91420    0.58560    1.000
    H98      H        0.34830    0.79980    0.52990    1.000
    H99      H        0.95040    0.12460    0.29150    1.000
    H100     H        0.93060    0.23720    0.22320    1.000
    H101     H        0.03290    0.34100    0.21320    1.000
    H102     H        0.17430    0.22390    0.34200    1.000
    H103     H        0.15120    0.40080    0.18580    1.000
    H104     H        0.26300    0.49110    0.17500    1.000
    H105     H        0.34040    0.44140    0.34300    1.000
    H106     H        0.23170    0.34680    0.35830    1.000
    H107     H        0.25430    0.02650    0.35600    1.000
    H108     H        0.25850    0.10230    0.39580    1.000
    H109     H        0.86000    0.76830    0.53890    1.000
    H110     H        0.75860    0.71070    0.60330    1.000
    H111     H        0.78530    0.91080    0.71750    1.000
    H112     H        0.88930    0.95970    0.65100    1.000
    H113     H        0.63870    0.69490    0.63740    1.000
    H114     H        0.49330    0.70040    0.79120    1.000
    H115     H        0.58580    0.79770    0.83560    1.000
    H116     H        0.70020    0.84830    0.77990    1.000
    H117     H        0.37540    0.45040    0.54150    1.000
    H118     H        0.26280    0.43060    0.47320    1.000
    H119     H        0.15900    0.53290    0.46320    1.000
    H120     H        0.27610    0.67430    0.59200    1.000
    H121     H        0.09920    0.65120    0.43580    1.000
    H122     H        0.00890    0.76300    0.42500    1.000
    H123     H        0.05860    0.84040    0.59300    1.000
    H124     H        0.15320    0.73170    0.60830    1.000
    H125     H        0.47350    0.75430    0.60600    1.000
    H126     H        0.39770    0.75850    0.64580    1.000
    H127     H        0.14000    0.23170    0.03890    1.000
    H128     H        0.24140    0.28930    0.10330    1.000
    H129     H        0.21470    0.08920    0.21750    1.000
    H130     H        0.11070    0.04030    0.15100    1.000
    H131     H        0.36130    0.30510    0.13740    1.000
    H132     H        0.50670    0.29960    0.29120    1.000
    H133     H        0.41420    0.20230    0.33560    1.000
    H134     H        0.29980    0.15170    0.27990    1.000
    H135     H        0.62460    0.54960    0.04150    1.000
    H136     H        0.73720    0.56940    0.97320    1.000
    H137     H        0.84100    0.46710    0.96320    1.000
    H138     H        0.72390    0.32570    0.09200    1.000
    H139     H        0.90080    0.34880    0.93580    1.000
    H140     H        0.99110    0.23700    0.92500    1.000
    H141     H        0.94140    0.15960    0.09300    1.000
    H142     H        0.84680    0.26830    0.10830    1.000
    H143     H        0.52650    0.24570    0.10600    1.000
    H144     H        0.60230    0.24150    0.14580    1.000
    C1       C        0.79840    0.84320    0.42510    1.000
    C2       C        0.76430    0.78170    0.38700    1.000
    C3       C        0.80750    0.75320    0.33470    1.000
    C4       C        0.88110    0.79750    0.31970    1.000
    C5       C        0.91000    0.85970    0.36020    1.000
    C6       C        0.77740    0.68140    0.29740    1.000
    C7       C        0.71650    0.62730    0.32230    1.000
    C8       C        0.68710    0.55870    0.29080    1.000
    C9       C        0.71880    0.54150    0.23110    1.000
    C10      C        0.77750    0.59590    0.20530    1.000
    C11      C        0.80720    0.66440    0.23830    1.000
    C12      C        0.62430    0.50320    0.32070    1.000
    C13      C        0.57370    0.40710    0.38360    1.000
    C14      C        0.56560    0.33710    0.42720    1.000
    C15      C        0.49220    0.33280    0.46220    1.000
    C16      C        0.48050    0.26590    0.50260    1.000
    C17      C        0.54050    0.20360    0.50800    1.000
    C18      C        0.61290    0.20640    0.47080    1.000
    C19      C        0.62440    0.27320    0.43220    1.000
    C20      C        0.67970    0.13990    0.47790    1.000
    C21      C        0.69030    0.09340    0.53110    1.000
    C22      C        0.75690    0.03850    0.53690    1.000
    C23      C        0.80160    0.06770    0.43990    1.000
    C24      C        0.73690    0.12470    0.43040    1.000
    C25      C        0.20160    0.15680    0.92510    1.000
    C26      C        0.23570    0.21830    0.88700    1.000
    C27      C        0.19250    0.24680    0.83470    1.000
    C28      C        0.11890    0.20250    0.81970    1.000
    C29      C        0.09000    0.14030    0.86020    1.000
    C30      C        0.22260    0.31860    0.79740    1.000
    C31      C        0.28350    0.37270    0.82230    1.000
    C32      C        0.31290    0.44130    0.79080    1.000
    C33      C        0.28120    0.45850    0.73110    1.000
    C34      C        0.22250    0.40410    0.70530    1.000
    C35      C        0.19280    0.33560    0.73830    1.000
    C36      C        0.37570    0.49680    0.82070    1.000
    C37      C        0.42630    0.59290    0.88360    1.000
    C38      C        0.43440    0.66290    0.92720    1.000
    C39      C        0.50780    0.66720    0.96220    1.000
    C40      C        0.51950    0.73410    0.00260    1.000
    C41      C        0.45950    0.79640    0.00800    1.000
    C42      C        0.38710    0.79360    0.97080    1.000
    C43      C        0.37560    0.72680    0.93220    1.000
    C44      C        0.32030    0.86010    0.97790    1.000
    C45      C        0.30970    0.90660    0.03110    1.000
    C46      C        0.24310    0.96150    0.03690    1.000
    C47      C        0.19840    0.93230    0.93990    1.000
    C48      C        0.26310    0.87530    0.93040    1.000
    C49      C        0.65680    0.29840    0.67510    1.000
    C50      C        0.71830    0.26430    0.63700    1.000
    C51      C        0.74680    0.30750    0.58470    1.000
    C52      C        0.70250    0.38110    0.56970    1.000
    C53      C        0.64030    0.41000    0.61020    1.000
    C54      C        0.81860    0.27740    0.54740    1.000
    C55      C        0.87270    0.21650    0.57230    1.000
    C56      C        0.94130    0.18710    0.54080    1.000
    C57      C        0.95850    0.21880    0.48110    1.000
    C58      C        0.90410    0.27750    0.45530    1.000
    C59      C        0.83560    0.30720    0.48830    1.000
    C60      C        0.99680    0.12430    0.57070    1.000
    C61      C        0.09290    0.07370    0.63360    1.000
    C62      C        0.16290    0.06560    0.67720    1.000
    C63      C        0.16720    0.99220    0.71220    1.000
    C64      C        0.23410    0.98050    0.75260    1.000
    C65      C        0.29640    0.04050    0.75800    1.000
    C66      C        0.29360    0.11290    0.72080    1.000
    C67      C        0.22680    0.12440    0.68220    1.000
    C68      C        0.36010    0.17970    0.72790    1.000
    C69      C        0.40660    0.19030    0.78110    1.000
    C70      C        0.46150    0.25690    0.78690    1.000
    C71      C        0.43230    0.30160    0.68990    1.000
    C72      C        0.37530    0.23690    0.68040    1.000
    C73      C        0.34320    0.70160    0.17510    1.000
    C74      C        0.28170    0.73570    0.13700    1.000
    C75      C        0.25320    0.69250    0.08470    1.000
    C76      C        0.29750    0.61890    0.06970    1.000
    C77      C        0.35970    0.59000    0.11020    1.000
    C78      C        0.18140    0.72260    0.04740    1.000
    C79      C        0.12730    0.78350    0.07230    1.000
    C80      C        0.05870    0.81290    0.04080    1.000
    C81      C        0.04150    0.78120    0.98110    1.000
    C82      C        0.09590    0.72250    0.95530    1.000
    C83      C        0.16440    0.69280    0.98830    1.000
    C84      C        0.00320    0.87570    0.07070    1.000
    C85      C        0.90710    0.92630    0.13360    1.000
    C86      C        0.83710    0.93440    0.17720    1.000
    C87      C        0.83280    0.00780    0.21220    1.000
    C88      C        0.76590    0.01950    0.25260    1.000
    C89      C        0.70360    0.95950    0.25800    1.000
    C90      C        0.70640    0.88710    0.22080    1.000
    C91      C        0.77320    0.87560    0.18220    1.000
    C92      C        0.63990    0.82030    0.22790    1.000
    C93      C        0.59340    0.80970    0.28110    1.000
    C94      C        0.53850    0.74310    0.28690    1.000
    C95      C        0.56770    0.69840    0.18990    1.000
    C96      C        0.62470    0.76310    0.18040    1.000
    C97      C        0.70160    0.34320    0.82490    1.000
    C98      C        0.73570    0.28170    0.86300    1.000
    C99      C        0.69250    0.25320    0.91530    1.000
    C100     C        0.61890    0.29750    0.93030    1.000
    C101     C        0.59000    0.35970    0.88980    1.000
    C102     C        0.72260    0.18140    0.95260    1.000
    C103     C        0.78350    0.12730    0.92770    1.000
    C104     C        0.81290    0.05870    0.95920    1.000
    C105     C        0.78120    0.04150    0.01890    1.000
    C106     C        0.72250    0.09590    0.04470    1.000
    C107     C        0.69280    0.16440    0.01170    1.000
    C108     C        0.87570    0.00320    0.92930    1.000
    C109     C        0.92630    0.90710    0.86640    1.000
    C110     C        0.93440    0.83710    0.82280    1.000
    C111     C        0.00780    0.83280    0.78780    1.000
    C112     C        0.01950    0.76590    0.74740    1.000
    C113     C        0.95950    0.70360    0.74200    1.000
    C114     C        0.88710    0.70640    0.77920    1.000
    C115     C        0.87560    0.77320    0.81780    1.000
    C116     C        0.82030    0.63990    0.77210    1.000
    C117     C        0.80970    0.59340    0.71890    1.000
    C118     C        0.74310    0.53850    0.71310    1.000
    C119     C        0.69840    0.56770    0.81010    1.000
    C120     C        0.76310    0.62470    0.81960    1.000
    C121     C        0.29840    0.65680    0.32490    1.000
    C122     C        0.26430    0.71830    0.36300    1.000
    C123     C        0.30750    0.74680    0.41530    1.000
    C124     C        0.38110    0.70250    0.43030    1.000
    C125     C        0.41000    0.64030    0.38980    1.000
    C126     C        0.27740    0.81860    0.45260    1.000
    C127     C        0.21650    0.87270    0.42770    1.000
    C128     C        0.18710    0.94130    0.45920    1.000
    C129     C        0.21880    0.95850    0.51890    1.000
    C130     C        0.27750    0.90410    0.54470    1.000
    C131     C        0.30720    0.83560    0.51170    1.000
    C132     C        0.12430    0.99680    0.42930    1.000
    C133     C        0.07370    0.09290    0.36640    1.000
    C134     C        0.06560    0.16290    0.32280    1.000
    C135     C        0.99220    0.16720    0.28780    1.000
    C136     C        0.98050    0.23410    0.24740    1.000
    C137     C        0.04050    0.29640    0.24200    1.000
    C138     C        0.11290    0.29360    0.27920    1.000
    C139     C        0.12440    0.22680    0.31780    1.000
    C140     C        0.17970    0.36010    0.27210    1.000
    C141     C        0.19030    0.40660    0.21890    1.000
    C142     C        0.25690    0.46150    0.21310    1.000
    C143     C        0.30160    0.43230    0.31010    1.000
    C144     C        0.23690    0.37530    0.31960    1.000
    C145     C        0.84320    0.79840    0.57490    1.000
    C146     C        0.78170    0.76430    0.61300    1.000
    C147     C        0.75320    0.80750    0.66530    1.000
    C148     C        0.79750    0.88110    0.68030    1.000
    C149     C        0.85970    0.91000    0.63980    1.000
    C150     C        0.68140    0.77740    0.70260    1.000
    C151     C        0.62730    0.71650    0.67770    1.000
    C152     C        0.55870    0.68710    0.70920    1.000
    C153     C        0.54150    0.71880    0.76890    1.000
    C154     C        0.59590    0.77750    0.79470    1.000
    C155     C        0.66440    0.80720    0.76170    1.000
    C156     C        0.50320    0.62430    0.67930    1.000
    C157     C        0.40710    0.57370    0.61640    1.000
    C158     C        0.33710    0.56560    0.57280    1.000
    C159     C        0.33280    0.49220    0.53780    1.000
    C160     C        0.26590    0.48050    0.49740    1.000
    C161     C        0.20360    0.54050    0.49200    1.000
    C162     C        0.20640    0.61290    0.52920    1.000
    C163     C        0.27320    0.62440    0.56780    1.000
    C164     C        0.13990    0.67970    0.52210    1.000
    C165     C        0.09340    0.69030    0.46890    1.000
    C166     C        0.03850    0.75690    0.46310    1.000
    C167     C        0.06770    0.80160    0.56010    1.000
    C168     C        0.12470    0.73690    0.56960    1.000
    C169     C        0.15680    0.20160    0.07490    1.000
    C170     C        0.21830    0.23570    0.11300    1.000
    C171     C        0.24680    0.19250    0.16530    1.000
    C172     C        0.20250    0.11890    0.18030    1.000
    C173     C        0.14030    0.09000    0.13980    1.000
    C174     C        0.31860    0.22260    0.20260    1.000
    C175     C        0.37270    0.28350    0.17770    1.000
    C176     C        0.44130    0.31290    0.20920    1.000
    C177     C        0.45850    0.28120    0.26890    1.000
    C178     C        0.40410    0.22250    0.29470    1.000
    C179     C        0.33560    0.19280    0.26170    1.000
    C180     C        0.49680    0.37570    0.17930    1.000
    C181     C        0.59290    0.42630    0.11640    1.000
    C182     C        0.66290    0.43440    0.07280    1.000
    C183     C        0.66720    0.50780    0.03780    1.000
    C184     C        0.73410    0.51950    0.99740    1.000
    C185     C        0.79640    0.45950    0.99200    1.000
    C186     C        0.79360    0.38710    0.02920    1.000
    C187     C        0.72680    0.37560    0.06780    1.000
    C188     C        0.86010    0.32030    0.02210    1.000
    C189     C        0.90660    0.30970    0.96890    1.000
    C190     C        0.96150    0.24310    0.96310    1.000
    C191     C        0.93230    0.19840    0.06010    1.000
    C192     C        0.87530    0.26310    0.06960    1.000
    N1       N        0.87340    0.88010    0.41250    1.000
    N2       N        0.54360    0.50620    0.31730    1.000
    N3       N        0.51020    0.44470    0.35610    1.000
    N4       N        0.64720    0.44330    0.36210    1.000
    N5       N        0.72830    0.42430    0.38390    1.000
    N6       N        0.81290    0.02460    0.49280    1.000
    N7       N        0.12660    0.11990    0.91250    1.000
    N8       N        0.45640    0.49380    0.81730    1.000
    N9       N        0.48980    0.55530    0.85610    1.000
    N10      N        0.35280    0.55670    0.86210    1.000
    N11      N        0.27170    0.57570    0.88390    1.000
    N12      N        0.18710    0.97540    0.99280    1.000
    N13      N        0.61990    0.37340    0.66250    1.000
    N14      N        0.99380    0.04360    0.56730    1.000
    N15      N        0.05530    0.01020    0.60610    1.000
    N16      N        0.05670    0.14720    0.61210    1.000
    N17      N        0.07570    0.22830    0.63390    1.000
    N18      N        0.47540    0.31290    0.74280    1.000
    N19      N        0.38010    0.62660    0.16250    1.000
    N20      N        0.00620    0.95640    0.06730    1.000
    N21      N        0.94470    0.98980    0.10610    1.000
    N22      N        0.94330    0.85280    0.11210    1.000
    N23      N        0.92430    0.77170    0.13390    1.000
    N24      N        0.52460    0.68710    0.24280    1.000
    N25      N        0.62660    0.38010    0.83750    1.000
    N26      N        0.95640    0.00620    0.93270    1.000
    N27      N        0.98980    0.94470    0.89390    1.000
    N28      N        0.85280    0.94330    0.88790    1.000
    N29      N        0.77170    0.92430    0.86610    1.000
    N30      N        0.68710    0.52460    0.75720    1.000
    N31      N        0.37340    0.61990    0.33750    1.000
    N32      N        0.04360    0.99380    0.43270    1.000
    N33      N        0.01020    0.05530    0.39390    1.000
    N34      N        0.14720    0.05670    0.38790    1.000
    N35      N        0.22830    0.07570    0.36610    1.000
    N36      N        0.31290    0.47540    0.25720    1.000
    N37      N        0.88010    0.87340    0.58750    1.000
    N38      N        0.50620    0.54360    0.68270    1.000
    N39      N        0.44470    0.51020    0.64390    1.000
    N40      N        0.44330    0.64720    0.63790    1.000
    N41      N        0.42430    0.72830    0.61610    1.000
    N42      N        0.02460    0.81290    0.50720    1.000
    N43      N        0.11990    0.12660    0.08750    1.000
    N44      N        0.49380    0.45640    0.18270    1.000
    N45      N        0.55530    0.48980    0.14390    1.000
    N46      N        0.55670    0.35280    0.13790    1.000
    N47      N        0.57570    0.27170    0.11610    1.000
    N48      N        0.97540    0.18710    0.00720    1.000
    Cl1      Cl       0.88066    0.11934    0.75000    1.000
    O1       O        0.89580    0.18750    0.77790    1.000
    O2       O        0.87920    0.06620    0.78690    1.000
    O3       O        0.81250    0.10420    0.72210    1.000
    O4       O        0.93380    0.12080    0.71310    1.000
    Cl2      Cl       0.11934    0.88066    0.25000    1.000
    O5       O        0.10420    0.81250    0.27790    1.000
    O6       O        0.12080    0.93380    0.28690    1.000
    O7       O        0.18750    0.89580    0.22210    1.000
    O8       O        0.06620    0.87920    0.21310    1.000
    Cl3      Cl       0.38066    0.38066    0.00000    1.000
    O9       O        0.31250    0.39580    0.02790    1.000
    O10      O        0.43380    0.37920    0.03690    1.000
    O11      O        0.39580    0.31250    0.97210    1.000
    O12      O        0.37920    0.43380    0.96310    1.000
    Cl4      Cl       0.61934    0.61934    0.50000    1.000
    O13      O        0.68750    0.60420    0.52790    1.000
    O14      O        0.56620    0.62080    0.53690    1.000
    O15      O        0.60420    0.68750    0.47210    1.000
    O16      O        0.62080    0.56620    0.46310    1.000
    Cl5      Cl       0.77065    0.77065    0.00000    1.000
    O17      O        0.73870    0.73690    0.05160    1.000
    O18      O        0.70580    0.85100    0.00950    1.000
    O19      O        0.73690    0.73870    0.94840    1.000
    O20      O        0.85100    0.70580    0.99050    1.000
    Cl6      Cl       0.22935    0.22935    0.50000    1.000
    O21      O        0.26130    0.26310    0.55160    1.000
    O22      O        0.29420    0.14900    0.50950    1.000
    O23      O        0.26310    0.26130    0.44840    1.000
    O24      O        0.14900    0.29420    0.49050    1.000
    Cl7      Cl       0.72935    0.27065    0.25000    1.000
    O25      O        0.76310    0.23870    0.30160    1.000
    O26      O        0.64900    0.20580    0.25950    1.000
    O27      O        0.76130    0.23690    0.19840    1.000
    O28      O        0.79420    0.35100    0.24050    1.000
    Cl8      Cl       0.27065    0.72935    0.75000    1.000
    O29      O        0.23690    0.76130    0.80160    1.000
    O30      O        0.35100    0.79420    0.75950    1.000
    O31      O        0.23870    0.76310    0.69840    1.000
    O32      O        0.20580    0.64900    0.74050    1.000
