# CIF file generated by openbabel 3.1.0, see https://openbabel.org
data_I
_chemical_name_common 'image0'
_cell_length_a 17.6122
_cell_length_b 18.1405
_cell_length_c 18.3816
_cell_angle_alpha 90
_cell_angle_beta 91.826
_cell_angle_gamma 90
_space_group_name_H-M_alt 'P 1'
_space_group_name_Hall 'P 1'
loop_
    _symmetry_equiv_pos_as_xyz
    x,y,z
loop_
    _atom_site_label
    _atom_site_type_symbol
    _atom_site_fract_x
    _atom_site_fract_y
    _atom_site_fract_z
    _atom_site_occupancy
    Co1      Co       0.39672    0.52745    0.19795    1.000
    Co2      Co       0.32123    0.39531    0.12560    1.000
    Co3      Co       0.39533    0.23486    0.06495    1.000
    O1       O        0.38238    0.42489    0.21871    1.000
    O2       O        0.64376    0.51349    0.94116    1.000
    O3       O        0.55892    0.43642    0.89067    1.000
    O4       O        0.29312    0.21073    0.10246    1.000
    O5       O        0.76677    0.96251    0.34231    1.000
    O6       O        0.41673    0.33482    0.09825    1.000
    O7       O        0.70744    0.06173    0.29433    1.000
    O8       O        0.27576    0.30666    0.17728    1.000
    O9       O        0.49558    0.26794    0.48509    1.000
    O10      O        0.37794    0.29980    0.46213    1.000
    C1       C        0.59353    0.46493    0.94622    1.000
    N1       N        0.45983    0.16408    0.13358    1.000
    C2       C        0.52611    0.39230    0.15598    1.000
    C3       C        0.61479    0.45768    0.08045    1.000
    H1       H        0.65940    0.48660    0.07640    1.000
    C4       C        0.50743    0.39572    0.02569    1.000
    H2       H        0.47950    0.38100    0.98310    1.000
    N2       N        0.53851    0.08279    0.22358    1.000
    C5       C        0.48276    0.37370    0.09302    1.000
    C6       C        0.57215    0.43896    0.01880    1.000
    C7       C        0.25717    0.24576    0.15057    1.000
    C8       C        0.55747    0.32927    0.27400    1.000
    H3       H        0.60700    0.32040    0.25710    1.000
    C9       C        0.41298    0.35456    0.32321    1.000
    H4       H        0.36300    0.36210    0.33960    1.000
    C10      C        0.46613    0.31659    0.36746    1.000
    C11      C        0.18709    0.20968    0.17871    1.000
    C12      C        0.43256    0.38106    0.25599    1.000
    C13      C        0.76646    0.02395    0.31184    1.000
    C14      C        0.59223    0.43407    0.14834    1.000
    H5       H        0.62220    0.44650    0.19040    1.000
    C15      C        0.44609    0.29281    0.44207    1.000
    C16      C        0.50483    0.36691    0.22921    1.000
    C17      C        0.54013    0.18836    0.13780    1.000
    H6       H        0.54260    0.24080    0.15250    1.000
    H7       H        0.56240    0.18390    0.08920    1.000
    C18      C        0.53895    0.30483    0.34217    1.000
    H8       H        0.57580    0.27990    0.37190    1.000
    C19      C        0.50620    0.03844    0.16260    1.000
    H9       H        0.47400    0.99880    0.18220    1.000
    H10      H        0.54800    0.01490    0.13630    1.000
    C20      C        0.42825    0.16720    0.20722    1.000
    H11      H        0.37480    0.15030    0.20490    1.000
    H12      H        0.42900    0.21880    0.22480    1.000
    C21      C        0.47392    0.11895    0.26022    1.000
    H13      H        0.49380    0.14950    0.30120    1.000
    H14      H        0.44040    0.08070    0.28030    1.000
    C22      C        0.14008    0.25065    0.22227    1.000
    H15      H        0.15330    0.29990    0.23490    1.000
    C23      C        0.16818    0.13819    0.16150    1.000
    H16      H        0.20030    0.10950    0.13210    1.000
    C24      C        0.45841    0.08595    0.10924    1.000
    H17      H        0.47900    0.08230    0.05990    1.000
    H18      H        0.40540    0.06780    0.10700    1.000
    C25      C        0.58625    0.14184    0.19259    1.000
    H19      H        0.62990    0.11940    0.16820    1.000
    H20      H        0.60640    0.17380    0.23230    1.000
    C26      C        0.84054    0.05658    0.29250    1.000
    C27      C        0.07383    0.22010    0.24750    1.000
    C28      C        0.05330    0.14820    0.22930    1.000
    C29      C        0.90721    0.01950    0.30660    1.000
    H21      H        0.90610    0.97270    0.32990    1.000
    C30      C        0.10180    0.10821    0.18740    1.000
    H22      H        0.08950    0.05850    0.17590    1.000
    C31      C        0.97957    0.11680    0.25270    1.000
    C32      C        0.91240    0.15360    0.23870    1.000
    H23      H        0.91360    0.20020    0.21520    1.000
    C33      C        0.84300    0.12490    0.25800    1.000
    H24      H        0.79750    0.15150    0.24770    1.000
    O11      O        0.02980    0.26040    0.29330    1.000
    H25      H        0.04990    0.30190    0.30070    1.000
    O12      O        0.04201    0.00940    0.30250    1.000
    H26      H        0.03070    0.96710    0.31740    1.000
    C34      C        0.97614    0.04910    0.28750    1.000
    O13      O        0.91010    0.22010    0.19750    1.000
    H27      H        0.86660    0.23880    0.19900    1.000
    O14      O        0.09080    0.03330    0.16850    1.000
    H28      H        0.08100    0.00890    0.20590    1.000
    H29      H        0.04210    0.24850    0.27750    1.000
    H30      H        0.02170    0.02280    0.29830    1.000
    Co4      Co       0.60328    0.02745    0.30205    1.000
    Co5      Co       0.67877    0.89531    0.37440    1.000
    Co6      Co       0.60467    0.73486    0.43505    1.000
    O15      O        0.61762    0.92489    0.28129    1.000
    O16      O        0.35624    0.01349    0.55884    1.000
    O17      O        0.44108    0.93642    0.60933    1.000
    O18      O        0.70688    0.71073    0.39754    1.000
    O19      O        0.23323    0.46251    0.15769    1.000
    O20      O        0.58327    0.83482    0.40175    1.000
    O21      O        0.29256    0.56173    0.20567    1.000
    O22      O        0.72424    0.80666    0.32272    1.000
    O23      O        0.50442    0.76794    0.01491    1.000
    O24      O        0.62206    0.79980    0.03787    1.000
    C35      C        0.40647    0.96493    0.55378    1.000
    N3       N        0.54017    0.66408    0.36642    1.000
    C36      C        0.47389    0.89230    0.34402    1.000
    C37      C        0.38521    0.95768    0.41955    1.000
    H31      H        0.34060    0.98660    0.42360    1.000
    C38      C        0.49257    0.89572    0.47431    1.000
    H32      H        0.52050    0.88100    0.51690    1.000
    N4       N        0.46149    0.58279    0.27642    1.000
    C39      C        0.51724    0.87370    0.40698    1.000
    C40      C        0.42785    0.93896    0.48120    1.000
    C41      C        0.74283    0.74576    0.34943    1.000
    C42      C        0.44253    0.82927    0.22600    1.000
    H33      H        0.39300    0.82040    0.24290    1.000
    C43      C        0.58702    0.85456    0.17679    1.000
    H34      H        0.63700    0.86210    0.16040    1.000
    C44      C        0.53387    0.81659    0.13254    1.000
    C45      C        0.81291    0.70968    0.32129    1.000
    C46      C        0.56744    0.88106    0.24401    1.000
    C47      C        0.23354    0.52395    0.18816    1.000
    C48      C        0.40777    0.93407    0.35166    1.000
    H35      H        0.37780    0.94650    0.30960    1.000
    C49      C        0.55391    0.79281    0.05793    1.000
    C50      C        0.49517    0.86691    0.27079    1.000
    C51      C        0.45987    0.68836    0.36220    1.000
    H36      H        0.45740    0.74080    0.34750    1.000
    H37      H        0.43760    0.68390    0.41080    1.000
    C52      C        0.46105    0.80483    0.15783    1.000
    H38      H        0.42420    0.77990    0.12810    1.000
    C53      C        0.49380    0.53844    0.33740    1.000
    H39      H        0.52600    0.49880    0.31780    1.000
    H40      H        0.45200    0.51490    0.36370    1.000
    C54      C        0.57175    0.66720    0.29278    1.000
    H41      H        0.62520    0.65030    0.29510    1.000
    H42      H        0.57100    0.71880    0.27520    1.000
    C55      C        0.52608    0.61895    0.23978    1.000
    H43      H        0.50620    0.64950    0.19880    1.000
    H44      H        0.55960    0.58070    0.21970    1.000
    C56      C        0.85992    0.75065    0.27773    1.000
    H45      H        0.84670    0.79990    0.26510    1.000
    C57      C        0.83182    0.63819    0.33850    1.000
    H46      H        0.79970    0.60950    0.36790    1.000
    C58      C        0.54159    0.58595    0.39076    1.000
    H47      H        0.52100    0.58230    0.44010    1.000
    H48      H        0.59460    0.56780    0.39300    1.000
    C59      C        0.41375    0.64184    0.30741    1.000
    H49      H        0.37010    0.61940    0.33180    1.000
    H50      H        0.39360    0.67380    0.26770    1.000
    C60      C        0.15946    0.55658    0.20750    1.000
    C61      C        0.92617    0.72010    0.25250    1.000
    C62      C        0.94670    0.64820    0.27070    1.000
    C63      C        0.09279    0.51950    0.19340    1.000
    H51      H        0.09390    0.47270    0.17010    1.000
    C64      C        0.89820    0.60821    0.31260    1.000
    H52      H        0.91050    0.55850    0.32410    1.000
    C65      C        0.02043    0.61680    0.24730    1.000
    C66      C        0.08760    0.65360    0.26130    1.000
    H53      H        0.08640    0.70020    0.28480    1.000
    C67      C        0.15700    0.62490    0.24200    1.000
    H54      H        0.20250    0.65150    0.25230    1.000
    O25      O        0.97020    0.76040    0.20670    1.000
    H55      H        0.95010    0.80190    0.19930    1.000
    O26      O        0.95799    0.50940    0.19750    1.000
    H56      H        0.96930    0.46710    0.18260    1.000
    C68      C        0.02386    0.54910    0.21250    1.000
    O27      O        0.08990    0.72010    0.30250    1.000
    H57      H        0.13340    0.73880    0.30100    1.000
    O28      O        0.90920    0.53330    0.33150    1.000
    H58      H        0.91900    0.50890    0.29410    1.000
    H59      H        0.95790    0.74850    0.22250    1.000
    H60      H        0.97830    0.52280    0.20170    1.000
    Co7      Co       0.60328    0.47255    0.80205    1.000
    Co8      Co       0.67877    0.60469    0.87440    1.000
    Co9      Co       0.60467    0.76514    0.93505    1.000
    O29      O        0.61762    0.57511    0.78129    1.000
    O30      O        0.35624    0.48651    0.05884    1.000
    O31      O        0.44108    0.56358    0.10933    1.000
    O32      O        0.70688    0.78927    0.89754    1.000
    O33      O        0.23323    0.03749    0.65769    1.000
    O34      O        0.58327    0.66518    0.90175    1.000
    O35      O        0.29256    0.93827    0.70567    1.000
    O36      O        0.72424    0.69334    0.82272    1.000
    O37      O        0.50442    0.73206    0.51491    1.000
    O38      O        0.62206    0.70020    0.53787    1.000
    C69      C        0.40647    0.53507    0.05378    1.000
    N5       N        0.54017    0.83592    0.86642    1.000
    C70      C        0.47389    0.60770    0.84402    1.000
    C71      C        0.38521    0.54232    0.91955    1.000
    H61      H        0.34060    0.51340    0.92360    1.000
    C72      C        0.49257    0.60428    0.97431    1.000
    H62      H        0.52050    0.61900    0.01690    1.000
    N6       N        0.46149    0.91721    0.77642    1.000
    C73      C        0.51724    0.62630    0.90698    1.000
    C74      C        0.42785    0.56104    0.98120    1.000
    C75      C        0.74283    0.75424    0.84943    1.000
    C76      C        0.44253    0.67073    0.72600    1.000
    H63      H        0.39300    0.67960    0.74290    1.000
    C77      C        0.58702    0.64544    0.67679    1.000
    H64      H        0.63700    0.63790    0.66040    1.000
    C78      C        0.53387    0.68341    0.63254    1.000
    C79      C        0.81291    0.79032    0.82129    1.000
    C80      C        0.56744    0.61894    0.74401    1.000
    C81      C        0.23354    0.97605    0.68816    1.000
    C82      C        0.40777    0.56593    0.85166    1.000
    H65      H        0.37780    0.55350    0.80960    1.000
    C83      C        0.55391    0.70719    0.55793    1.000
    C84      C        0.49517    0.63309    0.77079    1.000
    C85      C        0.45987    0.81164    0.86220    1.000
    H66      H        0.45740    0.75920    0.84750    1.000
    H67      H        0.43760    0.81610    0.91080    1.000
    C86      C        0.46105    0.69517    0.65783    1.000
    H68      H        0.42420    0.72010    0.62810    1.000
    C87      C        0.49380    0.96156    0.83740    1.000
    H69      H        0.52600    0.00120    0.81780    1.000
    H70      H        0.45200    0.98510    0.86370    1.000
    C88      C        0.57175    0.83280    0.79278    1.000
    H71      H        0.62520    0.84970    0.79510    1.000
    H72      H        0.57100    0.78120    0.77520    1.000
    C89      C        0.52608    0.88105    0.73978    1.000
    H73      H        0.50620    0.85050    0.69880    1.000
    H74      H        0.55960    0.91930    0.71970    1.000
    C90      C        0.85992    0.74935    0.77773    1.000
    H75      H        0.84670    0.70010    0.76510    1.000
    C91      C        0.83182    0.86181    0.83850    1.000
    H76      H        0.79970    0.89050    0.86790    1.000
    C92      C        0.54159    0.91405    0.89076    1.000
    H77      H        0.52100    0.91770    0.94010    1.000
    H78      H        0.59460    0.93220    0.89300    1.000
    C93      C        0.41375    0.85816    0.80741    1.000
    H79      H        0.37010    0.88060    0.83180    1.000
    H80      H        0.39360    0.82620    0.76770    1.000
    C94      C        0.15946    0.94342    0.70750    1.000
    C95      C        0.92617    0.77990    0.75250    1.000
    C96      C        0.94670    0.85180    0.77070    1.000
    C97      C        0.09279    0.98050    0.69340    1.000
    H81      H        0.09390    0.02730    0.67010    1.000
    C98      C        0.89820    0.89179    0.81260    1.000
    H82      H        0.91050    0.94150    0.82410    1.000
    C99      C        0.02043    0.88320    0.74730    1.000
    C100     C        0.08760    0.84640    0.76130    1.000
    H83      H        0.08640    0.79980    0.78480    1.000
    C101     C        0.15700    0.87510    0.74200    1.000
    H84      H        0.20250    0.84850    0.75230    1.000
    O39      O        0.97020    0.73960    0.70670    1.000
    H85      H        0.95010    0.69810    0.69930    1.000
    O40      O        0.95799    0.99060    0.69750    1.000
    H86      H        0.96930    0.03290    0.68260    1.000
    C102     C        0.02386    0.95090    0.71250    1.000
    O41      O        0.08990    0.77990    0.80250    1.000
    H87      H        0.13340    0.76120    0.80100    1.000
    O42      O        0.90920    0.96670    0.83150    1.000
    H88      H        0.91900    0.99110    0.79410    1.000
    H89      H        0.95790    0.75150    0.72250    1.000
    H90      H        0.97830    0.97720    0.70170    1.000
    Co10     Co       0.39672    0.97255    0.69795    1.000
    Co11     Co       0.32123    0.10469    0.62560    1.000
    Co12     Co       0.39533    0.26514    0.56495    1.000
    O43      O        0.38238    0.07511    0.71871    1.000
    O44      O        0.64376    0.98651    0.44116    1.000
    O45      O        0.55892    0.06358    0.39067    1.000
    O46      O        0.29312    0.28927    0.60246    1.000
    O47      O        0.76677    0.53749    0.84231    1.000
    O48      O        0.41673    0.16518    0.59825    1.000
    O49      O        0.70744    0.43827    0.79433    1.000
    O50      O        0.27576    0.19334    0.67728    1.000
    O51      O        0.49558    0.23206    0.98509    1.000
    O52      O        0.37794    0.20020    0.96213    1.000
    C103     C        0.59353    0.03507    0.44622    1.000
    N7       N        0.45983    0.33592    0.63358    1.000
    C104     C        0.52611    0.10770    0.65598    1.000
    C105     C        0.61479    0.04232    0.58045    1.000
    H91      H        0.65940    0.01340    0.57640    1.000
    C106     C        0.50743    0.10428    0.52569    1.000
    H92      H        0.47950    0.11900    0.48310    1.000
    N8       N        0.53851    0.41721    0.72358    1.000
    C107     C        0.48276    0.12630    0.59302    1.000
    C108     C        0.57215    0.06104    0.51880    1.000
    C109     C        0.25717    0.25424    0.65057    1.000
    C110     C        0.55747    0.17073    0.77400    1.000
    H93      H        0.60700    0.17960    0.75710    1.000
    C111     C        0.41298    0.14544    0.82321    1.000
    H94      H        0.36300    0.13790    0.83960    1.000
    C112     C        0.46613    0.18341    0.86746    1.000
    C113     C        0.18709    0.29032    0.67871    1.000
    C114     C        0.43256    0.11894    0.75599    1.000
    C115     C        0.76646    0.47605    0.81184    1.000
    C116     C        0.59223    0.06593    0.64834    1.000
    H95      H        0.62220    0.05350    0.69040    1.000
    C117     C        0.44609    0.20719    0.94207    1.000
    C118     C        0.50483    0.13309    0.72921    1.000
    C119     C        0.54013    0.31164    0.63780    1.000
    H96      H        0.54260    0.25920    0.65250    1.000
    H97      H        0.56240    0.31610    0.58920    1.000
    C120     C        0.53895    0.19517    0.84217    1.000
    H98      H        0.57580    0.22010    0.87190    1.000
    C121     C        0.50620    0.46156    0.66260    1.000
    H99      H        0.47400    0.50120    0.68220    1.000
    H100     H        0.54800    0.48510    0.63630    1.000
    C122     C        0.42825    0.33280    0.70722    1.000
    H101     H        0.37480    0.34970    0.70490    1.000
    H102     H        0.42900    0.28120    0.72480    1.000
    C123     C        0.47392    0.38105    0.76022    1.000
    H103     H        0.49380    0.35050    0.80120    1.000
    H104     H        0.44040    0.41930    0.78030    1.000
    C124     C        0.14008    0.24935    0.72227    1.000
    H105     H        0.15330    0.20010    0.73490    1.000
    C125     C        0.16818    0.36181    0.66150    1.000
    H106     H        0.20030    0.39050    0.63210    1.000
    C126     C        0.45841    0.41405    0.60924    1.000
    H107     H        0.47900    0.41770    0.55990    1.000
    H108     H        0.40540    0.43220    0.60700    1.000
    C127     C        0.58625    0.35816    0.69259    1.000
    H109     H        0.62990    0.38060    0.66820    1.000
    H110     H        0.60640    0.32620    0.73230    1.000
    C128     C        0.84054    0.44342    0.79250    1.000
    C129     C        0.07383    0.27990    0.74750    1.000
    C130     C        0.05330    0.35180    0.72930    1.000
    C131     C        0.90721    0.48050    0.80660    1.000
    H111     H        0.90610    0.52730    0.82990    1.000
    C132     C        0.10180    0.39179    0.68740    1.000
    H112     H        0.08950    0.44150    0.67590    1.000
    C133     C        0.97957    0.38320    0.75270    1.000
    C134     C        0.91240    0.34640    0.73870    1.000
    H113     H        0.91360    0.29980    0.71520    1.000
    C135     C        0.84300    0.37510    0.75800    1.000
    H114     H        0.79750    0.34850    0.74770    1.000
    O53      O        0.02980    0.23960    0.79330    1.000
    H115     H        0.04990    0.19810    0.80070    1.000
    O54      O        0.04201    0.49060    0.80250    1.000
    H116     H        0.03070    0.53290    0.81740    1.000
    C136     C        0.97614    0.45090    0.78750    1.000
    O55      O        0.91010    0.27990    0.69750    1.000
    H117     H        0.86660    0.26120    0.69900    1.000
    O56      O        0.09080    0.46670    0.66850    1.000
    H118     H        0.08100    0.49110    0.70590    1.000
    H119     H        0.04210    0.25150    0.77750    1.000
    H120     H        0.02170    0.47720    0.79830    1.000
