# CIF file generated by openbabel 3.1.0, see https://openbabel.org
data_I
_chemical_name_common 'image0'
_cell_length_a 6.8654
_cell_length_b 11.42
_cell_length_c 17.4396
_cell_angle_alpha 90
_cell_angle_beta 98.662
_cell_angle_gamma 90
_space_group_name_H-M_alt 'P 1'
_space_group_name_Hall 'P 1'
loop_
    _symmetry_equiv_pos_as_xyz
    x,y,z
loop_
    _atom_site_label
    _atom_site_type_symbol
    _atom_site_fract_x
    _atom_site_fract_y
    _atom_site_fract_z
    _atom_site_occupancy
    Cd1      Cd       0.83205    0.35845    0.52672    1.000
    C1       C        0.54120    0.27410    0.30300    1.000
    C2       C        0.51280    0.36510    0.24990    1.000
    H1       H        0.53170    0.44200    0.26690    1.000
    C3       C        0.45630    0.34220    0.17160    1.000
    C4       C        0.42740    0.22700    0.14700    1.000
    H2       H        0.39230    0.21030    0.09450    1.000
    C5       C        0.45120    0.13740    0.20080    1.000
    C6       C        0.50940    0.15900    0.27840    1.000
    H3       H        0.52720    0.09760    0.31380    1.000
    C7       C        0.61180    0.29770    0.38780    1.000
    C8       C        0.42610    0.43820    0.11320    1.000
    C9       C        0.49250    0.98380    0.11270    1.000
    H4       H        0.63410    0.99510    0.12150    1.000
    H5       H        0.43780    0.03090    0.06830    1.000
    C10      C        0.44660    0.85740    0.09600    1.000
    O1       O        0.66260    0.40240    0.40650    1.000
    O2       O        0.63160    0.21750    0.43450    1.000
    O3       O        0.38170    0.41690    0.04290    1.000
    O4       O        0.44020    0.54290    0.13790    1.000
    O5       O        0.41240    0.02070    0.17900    1.000
    O6       O        0.33770    0.80280    0.13430    1.000
    O7       O        0.51660    0.81110    0.04100    1.000
    Cd2      Cd       0.66795    0.35845    0.97328    1.000
    C11      C        0.95880    0.27410    0.19700    1.000
    C12      C        0.98720    0.36510    0.25010    1.000
    H6       H        0.96830    0.44200    0.23310    1.000
    C13      C        0.04370    0.34220    0.32840    1.000
    C14      C        0.07260    0.22700    0.35300    1.000
    H7       H        0.10770    0.21030    0.40550    1.000
    C15      C        0.04880    0.13740    0.29920    1.000
    C16      C        0.99060    0.15900    0.22160    1.000
    H8       H        0.97280    0.09760    0.18620    1.000
    C17      C        0.88820    0.29770    0.11220    1.000
    C18      C        0.07390    0.43820    0.38680    1.000
    C19      C        0.00750    0.98380    0.38730    1.000
    H9       H        0.86590    0.99510    0.37850    1.000
    H10      H        0.06220    0.03090    0.43170    1.000
    C20      C        0.05340    0.85740    0.40400    1.000
    O8       O        0.83740    0.40240    0.09350    1.000
    O9       O        0.86840    0.21750    0.06550    1.000
    O10      O        0.11830    0.41690    0.45710    1.000
    O11      O        0.05980    0.54290    0.36210    1.000
    O12      O        0.08760    0.02070    0.32100    1.000
    O13      O        0.16230    0.80280    0.36570    1.000
    O14      O        0.98340    0.81110    0.45900    1.000
    Cd3      Cd       0.16795    0.64155    0.47328    1.000
    C21      C        0.45880    0.72590    0.69700    1.000
    C22      C        0.48720    0.63490    0.75010    1.000
    H11      H        0.46830    0.55800    0.73310    1.000
    C23      C        0.54370    0.65780    0.82840    1.000
    C24      C        0.57260    0.77300    0.85300    1.000
    H12      H        0.60770    0.78970    0.90550    1.000
    C25      C        0.54880    0.86260    0.79920    1.000
    C26      C        0.49060    0.84100    0.72160    1.000
    H13      H        0.47280    0.90240    0.68620    1.000
    C27      C        0.38820    0.70230    0.61220    1.000
    C28      C        0.57390    0.56180    0.88680    1.000
    C29      C        0.50750    0.01620    0.88730    1.000
    H14      H        0.36590    0.00490    0.87850    1.000
    H15      H        0.56220    0.96910    0.93170    1.000
    C30      C        0.55340    0.14260    0.90400    1.000
    O15      O        0.33740    0.59760    0.59350    1.000
    O16      O        0.36840    0.78250    0.56550    1.000
    O17      O        0.61830    0.58310    0.95710    1.000
    O18      O        0.55980    0.45710    0.86210    1.000
    O19      O        0.58760    0.97930    0.82100    1.000
    O20      O        0.66230    0.19720    0.86570    1.000
    O21      O        0.48340    0.18890    0.95900    1.000
    Cd4      Cd       0.33205    0.64155    0.02672    1.000
    C31      C        0.04120    0.72590    0.80300    1.000
    C32      C        0.01280    0.63490    0.74990    1.000
    H16      H        0.03170    0.55800    0.76690    1.000
    C33      C        0.95630    0.65780    0.67160    1.000
    C34      C        0.92740    0.77300    0.64700    1.000
    H17      H        0.89230    0.78970    0.59450    1.000
    C35      C        0.95120    0.86260    0.70080    1.000
    C36      C        0.00940    0.84100    0.77840    1.000
    H18      H        0.02720    0.90240    0.81380    1.000
    C37      C        0.11180    0.70230    0.88780    1.000
    C38      C        0.92610    0.56180    0.61320    1.000
    C39      C        0.99250    0.01620    0.61270    1.000
    H19      H        0.13410    0.00490    0.62150    1.000
    H20      H        0.93780    0.96910    0.56830    1.000
    C40      C        0.94660    0.14260    0.59600    1.000
    O22      O        0.16260    0.59760    0.90650    1.000
    O23      O        0.13160    0.78250    0.93450    1.000
    O24      O        0.88170    0.58310    0.54290    1.000
    O25      O        0.94020    0.45710    0.63790    1.000
    O26      O        0.91240    0.97930    0.67900    1.000
    O27      O        0.83770    0.19720    0.63430    1.000
    O28      O        0.01660    0.18890    0.54100    1.000
    Cd5      Cd       0.25000    0.85402    0.25000    1.000
    Cd6      Cd       0.75000    0.14598    0.75000    1.000
