# CIF file generated by openbabel 3.1.0, see https://openbabel.org
data_I
_chemical_name_common 'image0'
_cell_length_a 13.7442
_cell_length_b 14.2887
_cell_length_c 14.1178
_cell_angle_alpha 90
_cell_angle_beta 104.912
_cell_angle_gamma 90
_space_group_name_H-M_alt 'P 1'
_space_group_name_Hall 'P 1'
loop_
    _symmetry_equiv_pos_as_xyz
    x,y,z
loop_
    _atom_site_label
    _atom_site_type_symbol
    _atom_site_fract_x
    _atom_site_fract_y
    _atom_site_fract_z
    _atom_site_occupancy
    Mg1      Mg       0.12529    0.20877    0.51738    1.000
    Mg2      Mg       0.38341    0.09888    0.55142    1.000
    O1       O        0.19145    0.22052    0.40448    1.000
    O2       O        0.35618    0.18963    0.43698    1.000
    O3       O        0.13693    0.49403    0.04613    1.000
    O4       O        0.03124    0.41132    0.10807    1.000
    O5       O        0.38565    0.20130    0.65092    1.000
    O6       O        0.23710    0.27378    0.61779    1.000
    O7       O        0.31728    0.57459    0.95772    1.000
    O8       O        0.18032    0.50920    0.86580    1.000
    N1       N        0.37116    0.31887    0.17735    1.000
    N2       N        0.48396    0.34107    0.91229    1.000
    C1       C        0.27576    0.22438    0.38628    1.000
    C2       C        0.27990    0.27669    0.29475    1.000
    C3       C        0.36424    0.27390    0.25820    1.000
    H1       H        0.41920    0.23870    0.29190    1.000
    C4       C        0.29223    0.37090    0.13069    1.000
    H2       H        0.29720    0.40460    0.07580    1.000
    C5       C        0.20354    0.37721    0.15988    1.000
    C6       C        0.11645    0.43276    0.09951    1.000
    C7       C        0.19757    0.32831    0.24281    1.000
    H3       H        0.13870    0.33000    0.26370    1.000
    C8       C        0.32456    0.25948    0.66813    1.000
    C9       C        0.35959    0.31742    0.75953    1.000
    C10      C        0.45061    0.29710    0.82593    1.000
    H4       H        0.49070    0.25050    0.80980    1.000
    C11      C        0.42648    0.40988    0.93231    1.000
    H5       H        0.44840    0.44120    0.99170    1.000
    C12      C        0.33553    0.43730    0.86910    1.000
    C13      C        0.27400    0.51340    0.89882    1.000
    C14      C        0.30124    0.38875    0.78197    1.000
    H6       H        0.23970    0.40390    0.73910    1.000
    Mg3      Mg       0.37471    0.70877    0.98262    1.000
    Mg4      Mg       0.11659    0.59888    0.94858    1.000
    O9       O        0.30855    0.72052    0.09552    1.000
    O10      O        0.14382    0.68963    0.06302    1.000
    O11      O        0.36307    0.99403    0.45387    1.000
    O12      O        0.46876    0.91132    0.39193    1.000
    O13      O        0.11435    0.70130    0.84908    1.000
    O14      O        0.26290    0.77378    0.88221    1.000
    O15      O        0.18272    0.07459    0.54228    1.000
    O16      O        0.31968    0.00920    0.63420    1.000
    N3       N        0.12884    0.81887    0.32265    1.000
    N4       N        0.01604    0.84107    0.58771    1.000
    C15      C        0.22424    0.72438    0.11372    1.000
    C16      C        0.22010    0.77669    0.20525    1.000
    C17      C        0.13576    0.77390    0.24180    1.000
    H7       H        0.08080    0.73870    0.20810    1.000
    C18      C        0.20777    0.87090    0.36931    1.000
    H8       H        0.20280    0.90460    0.42420    1.000
    C19      C        0.29646    0.87721    0.34012    1.000
    C20      C        0.38355    0.93276    0.40049    1.000
    C21      C        0.30243    0.82831    0.25719    1.000
    H9       H        0.36130    0.83000    0.23630    1.000
    C22      C        0.17544    0.75948    0.83187    1.000
    C23      C        0.14041    0.81742    0.74047    1.000
    C24      C        0.04939    0.79710    0.67407    1.000
    H10      H        0.00930    0.75050    0.69020    1.000
    C25      C        0.07352    0.90988    0.56769    1.000
    H11      H        0.05160    0.94120    0.50830    1.000
    C26      C        0.16447    0.93730    0.63090    1.000
    C27      C        0.22600    0.01340    0.60118    1.000
    C28      C        0.19876    0.88875    0.71803    1.000
    H12      H        0.26030    0.90390    0.76090    1.000
    Mg5      Mg       0.87471    0.79123    0.48262    1.000
    Mg6      Mg       0.61659    0.90112    0.44858    1.000
    O17      O        0.80855    0.77948    0.59552    1.000
    O18      O        0.64382    0.81037    0.56302    1.000
    O19      O        0.86307    0.50597    0.95387    1.000
    O20      O        0.96876    0.58868    0.89193    1.000
    O21      O        0.61435    0.79870    0.34908    1.000
    O22      O        0.76290    0.72622    0.38221    1.000
    O23      O        0.68272    0.42541    0.04228    1.000
    O24      O        0.81968    0.49080    0.13420    1.000
    N5       N        0.62884    0.68113    0.82265    1.000
    N6       N        0.51604    0.65893    0.08771    1.000
    C29      C        0.72424    0.77562    0.61372    1.000
    C30      C        0.72010    0.72331    0.70525    1.000
    C31      C        0.63576    0.72610    0.74180    1.000
    H13      H        0.58080    0.76130    0.70810    1.000
    C32      C        0.70777    0.62910    0.86931    1.000
    H14      H        0.70280    0.59540    0.92420    1.000
    C33      C        0.79646    0.62279    0.84012    1.000
    C34      C        0.88355    0.56724    0.90049    1.000
    C35      C        0.80243    0.67169    0.75719    1.000
    H15      H        0.86130    0.67000    0.73630    1.000
    C36      C        0.67544    0.74052    0.33187    1.000
    C37      C        0.64041    0.68258    0.24047    1.000
    C38      C        0.54939    0.70290    0.17407    1.000
    H16      H        0.50930    0.74950    0.19020    1.000
    C39      C        0.57352    0.59012    0.06769    1.000
    H17      H        0.55160    0.55880    0.00830    1.000
    C40      C        0.66447    0.56270    0.13090    1.000
    C41      C        0.72600    0.48660    0.10118    1.000
    C42      C        0.69876    0.61125    0.21803    1.000
    H18      H        0.76030    0.59610    0.26090    1.000
    Mg7      Mg       0.62529    0.29123    0.01738    1.000
    Mg8      Mg       0.88341    0.40112    0.05142    1.000
    O25      O        0.69145    0.27948    0.90448    1.000
    O26      O        0.85618    0.31037    0.93698    1.000
    O27      O        0.63693    0.00597    0.54613    1.000
    O28      O        0.53124    0.08868    0.60807    1.000
    O29      O        0.88565    0.29870    0.15092    1.000
    O30      O        0.73710    0.22622    0.11779    1.000
    O31      O        0.81728    0.92541    0.45772    1.000
    O32      O        0.68032    0.99080    0.36580    1.000
    N7       N        0.87116    0.18113    0.67735    1.000
    N8       N        0.98396    0.15893    0.41229    1.000
    C43      C        0.77576    0.27562    0.88628    1.000
    C44      C        0.77990    0.22331    0.79475    1.000
    C45      C        0.86424    0.22610    0.75820    1.000
    H19      H        0.91920    0.26130    0.79190    1.000
    C46      C        0.79223    0.12910    0.63069    1.000
    H20      H        0.79720    0.09540    0.57580    1.000
    C47      C        0.70354    0.12279    0.65988    1.000
    C48      C        0.61645    0.06724    0.59951    1.000
    C49      C        0.69757    0.17169    0.74281    1.000
    H21      H        0.63870    0.17000    0.76370    1.000
    C50      C        0.82456    0.24052    0.16813    1.000
    C51      C        0.85959    0.18258    0.25953    1.000
    C52      C        0.95061    0.20290    0.32593    1.000
    H22      H        0.99070    0.24950    0.30980    1.000
    C53      C        0.92648    0.09012    0.43231    1.000
    H23      H        0.94840    0.05880    0.49170    1.000
    C54      C        0.83553    0.06270    0.36910    1.000
    C55      C        0.77400    0.98660    0.39882    1.000
    C56      C        0.80124    0.11125    0.28197    1.000
    H24      H        0.73970    0.09610    0.23910    1.000
