# CIF file generated by openbabel 3.1.0, see https://openbabel.org
data_I
_chemical_name_common 'image0'
_cell_length_a 17.3226
_cell_length_b 9.282
_cell_length_c 29.8388
_cell_angle_alpha 90
_cell_angle_beta 93.726
_cell_angle_gamma 90
_space_group_name_H-M_alt 'P 1'
_space_group_name_Hall 'P 1'
loop_
    _symmetry_equiv_pos_as_xyz
    x,y,z
loop_
    _atom_site_label
    _atom_site_type_symbol
    _atom_site_fract_x
    _atom_site_fract_y
    _atom_site_fract_z
    _atom_site_occupancy
    Ag1      Ag       0.50258    0.08860    0.11168    1.000
    Ag2      Ag       0.81934    0.10588    0.22064    1.000
    Ag3      Ag       0.83348    0.99440    0.44378    1.000
    S1       S        0.92451    0.19709    0.47199    1.000
    S2       S        0.58379    0.86564    0.14516    1.000
    S3       S        0.74295    0.87674    0.19496    1.000
    S4       S        0.88678    0.76810    0.48465    1.000
    S5       S        0.04539    0.80876    0.16246    1.000
    S6       S        0.80237    0.99759    0.35883    1.000
    S7       S        0.80413    0.51868    0.52739    1.000
    S8       S        0.95741    0.05263    0.20366    1.000
    S9       S        0.56205    0.09338    0.03528    1.000
    S10      S        0.35970    0.05112    0.12083    1.000
    S11      S        0.26744    0.81098    0.16213    1.000
    S12      S        0.77394    0.23647    0.28858    1.000
    H1       H        0.02310    0.02590    0.47760    1.000
    C1       C        0.66070    0.97480    0.17055    1.000
    H2       H        0.63940    0.03460    0.19430    1.000
    H3       H        0.67880    0.04100    0.14740    1.000
    C2       C        0.30760    0.02210    0.06718    1.000
    H4       H        0.34070    0.97010    0.04720    1.000
    H5       H        0.29280    0.11520    0.05370    1.000
    H6       H        0.26100    0.96510    0.07150    1.000
    C3       C        0.86560    0.55410    0.57751    1.000
    H7       H        0.91590    0.58950    0.56900    1.000
    H8       H        0.87290    0.46510    0.59490    1.000
    H9       H        0.84130    0.62710    0.59570    1.000
    C4       C        0.97630    0.25440    0.42437    1.000
    H10      H        0.02360    0.30530    0.43500    1.000
    H11      H        0.94350    0.31900    0.40540    1.000
    H12      H        0.99000    0.16990    0.40680    1.000
    C5       C        0.63250    0.79190    0.09825    1.000
    H13      H        0.65410    0.87070    0.08110    1.000
    H14      H        0.59540    0.73740    0.07870    1.000
    H15      H        0.67430    0.72790    0.10960    1.000
    C6       C        0.64800    0.20420    0.04268    1.000
    H16      H        0.67100    0.21580    0.01370    1.000
    H17      H        0.68540    0.15770    0.06410    1.000
    H18      H        0.63410    0.29890    0.05420    1.000
    C7       C        0.81830    0.18240    0.34220    1.000
    H19      H        0.79890    0.24650    0.36550    1.000
    H20      H        0.87470    0.19840    0.34180    1.000
    C8       C        0.95260    0.87330    0.18051    1.000
    H21      H        0.91410    0.87200    0.15450    1.000
    H22      H        0.93430    0.80640    0.20340    1.000
    H23      H        0.53140    0.27200    0.98130    1.000
    C9       C        0.36090    0.87200    0.14466    1.000
    H24      H        0.39870    0.86980    0.17100    1.000
    H25      H        0.37900    0.80340    0.12220    1.000
    C10      C        0.06740    0.95110    0.12369    1.000
    H26      H        0.03240    0.94410    0.09660    1.000
    H27      H        0.12100    0.94120    0.11550    1.000
    H28      H        0.06070    0.04490    0.13800    1.000
    C11      C        0.24160    0.95820    0.19787    1.000
    H29      H        0.28250    0.97200    0.22180    1.000
    H30      H        0.19280    0.93590    0.21120    1.000
    H31      H        0.23560    0.04650    0.18000    1.000
    C12      C        0.67370    0.19690    0.29665    1.000
    H32      H        0.66840    0.09490    0.30440    1.000
    H33      H        0.64230    0.21750    0.26890    1.000
    H34      H        0.65600    0.25670    0.32100    1.000
    C13      C        0.79650    0.69640    0.50296    1.000
    H35      H        0.77650    0.76320    0.52530    1.000
    H36      H        0.75820    0.69340    0.47690    1.000
    C14      C        0.87640    0.90320    0.33036    1.000
    H37      H        0.87190    0.92740    0.29830    1.000
    H38      H        0.86980    0.79910    0.33410    1.000
    H39      H        0.92760    0.93190    0.34330    1.000
    C15      C        0.70240    0.80000    0.24406    1.000
    H40      H        0.68810    0.87760    0.26420    1.000
    H41      H        0.74080    0.73730    0.25980    1.000
    H42      H        0.65630    0.74360    0.23480    1.000
    C16      C        0.90880    0.63820    0.44221    1.000
    H43      H        0.91490    0.54260    0.45590    1.000
    H44      H        0.95690    0.66570    0.42890    1.000
    H45      H        0.86650    0.63580    0.41880    1.000
    C17      C        0.01920    0.02620    0.25400    1.000
    H46      H        0.99920    0.94670    0.27140    1.000
    H47      H        0.02030    0.11450    0.27200    1.000
    H48      H        0.07170    0.00320    0.24590    1.000
    Ag4      Ag       0.00258    0.58860    0.11168    1.000
    Ag5      Ag       0.31934    0.60588    0.22064    1.000
    Ag6      Ag       0.33348    0.49440    0.44378    1.000
    S13      S        0.42451    0.69709    0.47199    1.000
    S14      S        0.08379    0.36564    0.14516    1.000
    S15      S        0.24295    0.37674    0.19496    1.000
    S16      S        0.38678    0.26810    0.48465    1.000
    S17      S        0.54539    0.30876    0.16246    1.000
    S18      S        0.30237    0.49759    0.35883    1.000
    S19      S        0.30413    0.01868    0.52739    1.000
    S20      S        0.45741    0.55263    0.20366    1.000
    S21      S        0.06205    0.59338    0.03528    1.000
    S22      S        0.85970    0.55112    0.12083    1.000
    S23      S        0.76744    0.31098    0.16213    1.000
    S24      S        0.27394    0.73647    0.28858    1.000
    H49      H        0.52310    0.52590    0.47760    1.000
    C18      C        0.16070    0.47480    0.17055    1.000
    H50      H        0.13940    0.53460    0.19430    1.000
    H51      H        0.17880    0.54100    0.14740    1.000
    C19      C        0.80760    0.52210    0.06718    1.000
    H52      H        0.84070    0.47010    0.04720    1.000
    H53      H        0.79280    0.61520    0.05370    1.000
    H54      H        0.76100    0.46510    0.07150    1.000
    C20      C        0.36560    0.05410    0.57751    1.000
    H55      H        0.41590    0.08950    0.56900    1.000
    H56      H        0.37290    0.96510    0.59490    1.000
    H57      H        0.34130    0.12710    0.59570    1.000
    C21      C        0.47630    0.75440    0.42437    1.000
    H58      H        0.52360    0.80530    0.43500    1.000
    H59      H        0.44350    0.81900    0.40540    1.000
    H60      H        0.49000    0.66990    0.40680    1.000
    C22      C        0.13250    0.29190    0.09825    1.000
    H61      H        0.15410    0.37070    0.08110    1.000
    H62      H        0.09540    0.23740    0.07870    1.000
    H63      H        0.17430    0.22790    0.10960    1.000
    C23      C        0.14800    0.70420    0.04268    1.000
    H64      H        0.17100    0.71580    0.01370    1.000
    H65      H        0.18540    0.65770    0.06410    1.000
    H66      H        0.13410    0.79890    0.05420    1.000
    C24      C        0.31830    0.68240    0.34220    1.000
    H67      H        0.29890    0.74650    0.36550    1.000
    H68      H        0.37470    0.69840    0.34180    1.000
    C25      C        0.45260    0.37330    0.18051    1.000
    H69      H        0.41410    0.37200    0.15450    1.000
    H70      H        0.43430    0.30640    0.20340    1.000
    H71      H        0.03140    0.77200    0.98130    1.000
    C26      C        0.86090    0.37200    0.14466    1.000
    H72      H        0.89870    0.36980    0.17100    1.000
    H73      H        0.87900    0.30340    0.12220    1.000
    C27      C        0.56740    0.45110    0.12369    1.000
    H74      H        0.53240    0.44410    0.09660    1.000
    H75      H        0.62100    0.44120    0.11550    1.000
    H76      H        0.56070    0.54490    0.13800    1.000
    C28      C        0.74160    0.45820    0.19787    1.000
    H77      H        0.78250    0.47200    0.22180    1.000
    H78      H        0.69280    0.43590    0.21120    1.000
    H79      H        0.73560    0.54650    0.18000    1.000
    C29      C        0.17370    0.69690    0.29665    1.000
    H80      H        0.16840    0.59490    0.30440    1.000
    H81      H        0.14230    0.71750    0.26890    1.000
    H82      H        0.15600    0.75670    0.32100    1.000
    C30      C        0.29650    0.19640    0.50296    1.000
    H83      H        0.27650    0.26320    0.52530    1.000
    H84      H        0.25820    0.19340    0.47690    1.000
    C31      C        0.37640    0.40320    0.33036    1.000
    H85      H        0.37190    0.42740    0.29830    1.000
    H86      H        0.36980    0.29910    0.33410    1.000
    H87      H        0.42760    0.43190    0.34330    1.000
    C32      C        0.20240    0.30000    0.24406    1.000
    H88      H        0.18810    0.37760    0.26420    1.000
    H89      H        0.24080    0.23730    0.25980    1.000
    H90      H        0.15630    0.24360    0.23480    1.000
    C33      C        0.40880    0.13820    0.44221    1.000
    H91      H        0.41490    0.04260    0.45590    1.000
    H92      H        0.45690    0.16570    0.42890    1.000
    H93      H        0.36650    0.13580    0.41880    1.000
    C34      C        0.51920    0.52620    0.25400    1.000
    H94      H        0.49920    0.44670    0.27140    1.000
    H95      H        0.52030    0.61450    0.27200    1.000
    H96      H        0.57170    0.50320    0.24590    1.000
    Ag7      Ag       0.49742    0.08860    0.88831    1.000
    Ag8      Ag       0.18066    0.10588    0.77936    1.000
    Ag9      Ag       0.16651    0.99440    0.55622    1.000
    S25      S        0.07549    0.19709    0.52801    1.000
    S26      S        0.41621    0.86564    0.85484    1.000
    S27      S        0.25705    0.87674    0.80504    1.000
    S28      S        0.11322    0.76810    0.51535    1.000
    S29      S        0.95461    0.80876    0.83754    1.000
    S30      S        0.19763    0.99759    0.64117    1.000
    S31      S        0.19587    0.51868    0.47261    1.000
    S32      S        0.04259    0.05263    0.79634    1.000
    S33      S        0.43795    0.09338    0.96472    1.000
    S34      S        0.64030    0.05112    0.87917    1.000
    S35      S        0.73256    0.81098    0.83787    1.000
    S36      S        0.22606    0.23647    0.71142    1.000
    H97      H        0.97690    0.02590    0.52240    1.000
    C35      C        0.33930    0.97480    0.82945    1.000
    H98      H        0.36060    0.03460    0.80570    1.000
    H99      H        0.32120    0.04100    0.85260    1.000
    C36      C        0.69240    0.02210    0.93282    1.000
    H100     H        0.65930    0.97010    0.95280    1.000
    H101     H        0.70720    0.11520    0.94630    1.000
    H102     H        0.73900    0.96510    0.92850    1.000
    C37      C        0.13440    0.55410    0.42249    1.000
    H103     H        0.08410    0.58950    0.43100    1.000
    H104     H        0.12710    0.46510    0.40510    1.000
    H105     H        0.15870    0.62710    0.40430    1.000
    C38      C        0.02370    0.25440    0.57563    1.000
    H106     H        0.97640    0.30530    0.56500    1.000
    H107     H        0.05650    0.31900    0.59460    1.000
    H108     H        0.01000    0.16990    0.59320    1.000
    C39      C        0.36750    0.79190    0.90175    1.000
    H109     H        0.34590    0.87070    0.91890    1.000
    H110     H        0.40460    0.73740    0.92130    1.000
    H111     H        0.32570    0.72790    0.89040    1.000
    C40      C        0.35200    0.20420    0.95732    1.000
    H112     H        0.32900    0.21580    0.98630    1.000
    H113     H        0.31460    0.15770    0.93590    1.000
    H114     H        0.36590    0.29890    0.94580    1.000
    C41      C        0.18170    0.18240    0.65780    1.000
    H115     H        0.20110    0.24650    0.63450    1.000
    H116     H        0.12530    0.19840    0.65820    1.000
    C42      C        0.04740    0.87330    0.81949    1.000
    H117     H        0.08590    0.87200    0.84550    1.000
    H118     H        0.06570    0.80640    0.79660    1.000
    H119     H        0.46860    0.27200    0.01870    1.000
    C43      C        0.63910    0.87200    0.85534    1.000
    H120     H        0.60130    0.86980    0.82900    1.000
    H121     H        0.62100    0.80340    0.87780    1.000
    C44      C        0.93260    0.95110    0.87631    1.000
    H122     H        0.96760    0.94410    0.90340    1.000
    H123     H        0.87900    0.94120    0.88450    1.000
    H124     H        0.93930    0.04490    0.86200    1.000
    C45      C        0.75840    0.95820    0.80213    1.000
    H125     H        0.71750    0.97200    0.77820    1.000
    H126     H        0.80720    0.93590    0.78880    1.000
    H127     H        0.76440    0.04650    0.82000    1.000
    C46      C        0.32630    0.19690    0.70335    1.000
    H128     H        0.33160    0.09490    0.69560    1.000
    H129     H        0.35770    0.21750    0.73110    1.000
    H130     H        0.34400    0.25670    0.67900    1.000
    C47      C        0.20350    0.69640    0.49704    1.000
    H131     H        0.22350    0.76320    0.47470    1.000
    H132     H        0.24180    0.69340    0.52310    1.000
    C48      C        0.12360    0.90320    0.66964    1.000
    H133     H        0.12810    0.92740    0.70170    1.000
    H134     H        0.13020    0.79910    0.66590    1.000
    H135     H        0.07240    0.93190    0.65670    1.000
    C49      C        0.29760    0.80000    0.75594    1.000
    H136     H        0.31190    0.87760    0.73580    1.000
    H137     H        0.25920    0.73730    0.74020    1.000
    H138     H        0.34370    0.74360    0.76520    1.000
    C50      C        0.09120    0.63820    0.55779    1.000
    H139     H        0.08510    0.54260    0.54410    1.000
    H140     H        0.04310    0.66570    0.57110    1.000
    H141     H        0.13350    0.63580    0.58120    1.000
    C51      C        0.98080    0.02620    0.74600    1.000
    H142     H        0.00080    0.94670    0.72860    1.000
    H143     H        0.97970    0.11450    0.72800    1.000
    H144     H        0.92830    0.00320    0.75410    1.000
    Ag10     Ag       0.99742    0.58860    0.88831    1.000
    Ag11     Ag       0.68066    0.60588    0.77936    1.000
    Ag12     Ag       0.66651    0.49440    0.55622    1.000
    S37      S        0.57549    0.69709    0.52801    1.000
    S38      S        0.91621    0.36564    0.85484    1.000
    S39      S        0.75705    0.37674    0.80504    1.000
    S40      S        0.61322    0.26810    0.51535    1.000
    S41      S        0.45461    0.30876    0.83754    1.000
    S42      S        0.69763    0.49759    0.64117    1.000
    S43      S        0.69587    0.01868    0.47261    1.000
    S44      S        0.54259    0.55263    0.79634    1.000
    S45      S        0.93795    0.59338    0.96472    1.000
    S46      S        0.14030    0.55112    0.87917    1.000
    S47      S        0.23256    0.31098    0.83787    1.000
    S48      S        0.72606    0.73647    0.71142    1.000
    H145     H        0.47690    0.52590    0.52240    1.000
    C52      C        0.83930    0.47480    0.82945    1.000
    H146     H        0.86060    0.53460    0.80570    1.000
    H147     H        0.82120    0.54100    0.85260    1.000
    C53      C        0.19240    0.52210    0.93282    1.000
    H148     H        0.15930    0.47010    0.95280    1.000
    H149     H        0.20720    0.61520    0.94630    1.000
    H150     H        0.23900    0.46510    0.92850    1.000
    C54      C        0.63440    0.05410    0.42249    1.000
    H151     H        0.58410    0.08950    0.43100    1.000
    H152     H        0.62710    0.96510    0.40510    1.000
    H153     H        0.65870    0.12710    0.40430    1.000
    C55      C        0.52370    0.75440    0.57563    1.000
    H154     H        0.47640    0.80530    0.56500    1.000
    H155     H        0.55650    0.81900    0.59460    1.000
    H156     H        0.51000    0.66990    0.59320    1.000
    C56      C        0.86750    0.29190    0.90175    1.000
    H157     H        0.84590    0.37070    0.91890    1.000
    H158     H        0.90460    0.23740    0.92130    1.000
    H159     H        0.82570    0.22790    0.89040    1.000
    C57      C        0.85200    0.70420    0.95732    1.000
    H160     H        0.82900    0.71580    0.98630    1.000
    H161     H        0.81460    0.65770    0.93590    1.000
    H162     H        0.86590    0.79890    0.94580    1.000
    C58      C        0.68170    0.68240    0.65780    1.000
    H163     H        0.70110    0.74650    0.63450    1.000
    H164     H        0.62530    0.69840    0.65820    1.000
    C59      C        0.54740    0.37330    0.81949    1.000
    H165     H        0.58590    0.37200    0.84550    1.000
    H166     H        0.56570    0.30640    0.79660    1.000
    H167     H        0.96860    0.77200    0.01870    1.000
    C60      C        0.13910    0.37200    0.85534    1.000
    H168     H        0.10130    0.36980    0.82900    1.000
    H169     H        0.12100    0.30340    0.87780    1.000
    C61      C        0.43260    0.45110    0.87631    1.000
    H170     H        0.46760    0.44410    0.90340    1.000
    H171     H        0.37900    0.44120    0.88450    1.000
    H172     H        0.43930    0.54490    0.86200    1.000
    C62      C        0.25840    0.45820    0.80213    1.000
    H173     H        0.21750    0.47200    0.77820    1.000
    H174     H        0.30720    0.43590    0.78880    1.000
    H175     H        0.26440    0.54650    0.82000    1.000
    C63      C        0.82630    0.69690    0.70335    1.000
    H176     H        0.83160    0.59490    0.69560    1.000
    H177     H        0.85770    0.71750    0.73110    1.000
    H178     H        0.84400    0.75670    0.67900    1.000
    C64      C        0.70350    0.19640    0.49704    1.000
    H179     H        0.72350    0.26320    0.47470    1.000
    H180     H        0.74180    0.19340    0.52310    1.000
    C65      C        0.62360    0.40320    0.66964    1.000
    H181     H        0.62810    0.42740    0.70170    1.000
    H182     H        0.63020    0.29910    0.66590    1.000
    H183     H        0.57240    0.43190    0.65670    1.000
    C66      C        0.79760    0.30000    0.75594    1.000
    H184     H        0.81190    0.37760    0.73580    1.000
    H185     H        0.75920    0.23730    0.74020    1.000
    H186     H        0.84370    0.24360    0.76520    1.000
    C67      C        0.59120    0.13820    0.55779    1.000
    H187     H        0.58510    0.04260    0.54410    1.000
    H188     H        0.54310    0.16570    0.57110    1.000
    H189     H        0.63350    0.13580    0.58120    1.000
    C68      C        0.48080    0.52620    0.74600    1.000
    H190     H        0.50080    0.44670    0.72860    1.000
    H191     H        0.47970    0.61450    0.72800    1.000
    H192     H        0.42830    0.50320    0.75410    1.000
    C69      C        0.00000    0.08870    0.50000    1.000
    C70      C        0.50000    0.58870    0.50000    1.000
    C71      C        0.50000    0.20970    0.00000    1.000
    C72      C        0.00000    0.70970    0.00000    1.000
