# CIF file generated by openbabel 3.1.0, see https://openbabel.org
data_I
_chemical_name_common 'image0'
_cell_length_a 11.688
_cell_length_b 10.2438
_cell_length_c 18.753
_cell_angle_alpha 90
_cell_angle_beta 127.408
_cell_angle_gamma 90
_space_group_name_H-M_alt 'P 1'
_space_group_name_Hall 'P 1'
loop_
    _symmetry_equiv_pos_as_xyz
    x,y,z
loop_
    _atom_site_label
    _atom_site_type_symbol
    _atom_site_fract_x
    _atom_site_fract_y
    _atom_site_fract_z
    _atom_site_occupancy
    Mn1      Mn       0.37545    0.08643    0.12980    1.000
    Mn2      Mn       0.57461    0.89962    0.31488    1.000
    O1       O        0.44320    0.20820    0.24617    1.000
    O2       O        0.55900    0.07740    0.36620    1.000
    O3       O        0.59000    0.99830    0.21870    1.000
    O4       O        0.67720    0.00150    0.14160    1.000
    O5       O        0.45680    0.26280    0.10820    1.000
    O6       O        0.47850    0.20640    0.00230    1.000
    O7       O        0.34520    0.92870    0.19800    1.000
    O8       O        0.11010    0.90120    0.12740    1.000
    O9       O        0.33650    0.97200    0.02170    1.000
    O10      O        0.11880    0.89680    0.96660    1.000
    O11      O        0.15770    0.16140    0.05780    1.000
    O12      O        0.20190    0.37390    0.09080    1.000
    C1       C        0.50750    0.18510    0.32890    1.000
    C2       C        0.69240    0.99080    0.21210    1.000
    C3       C        0.48180    0.28560    0.05220    1.000
    C4       C        0.23870    0.88100    0.19040    1.000
    C5       C        0.22520    0.90030    0.96780    1.000
    C6       C        0.11970    0.28010    0.05040    1.000
    C7       C        0.83100    0.98500    0.28400    1.000
    C8       C        0.56900    0.40050    0.06240    1.000
    C9       C        0.97600    0.33000    0.99100    1.000
    Mn3      Mn       0.62455    0.58643    0.37020    1.000
    Mn4      Mn       0.42539    0.39962    0.18512    1.000
    O13      O        0.55680    0.70820    0.25383    1.000
    O14      O        0.44100    0.57740    0.13380    1.000
    O15      O        0.41000    0.49830    0.28130    1.000
    O16      O        0.32280    0.50150    0.35840    1.000
    O17      O        0.54320    0.76280    0.39180    1.000
    O18      O        0.52150    0.70640    0.49770    1.000
    O19      O        0.65480    0.42870    0.30200    1.000
    O20      O        0.88990    0.40120    0.37260    1.000
    O21      O        0.66350    0.47200    0.47830    1.000
    O22      O        0.88120    0.39680    0.53340    1.000
    O23      O        0.84230    0.66140    0.44220    1.000
    O24      O        0.79810    0.87390    0.40920    1.000
    C10      C        0.49250    0.68510    0.17110    1.000
    C11      C        0.30760    0.49080    0.28790    1.000
    C12      C        0.51820    0.78560    0.44780    1.000
    C13      C        0.76130    0.38100    0.30960    1.000
    C14      C        0.77480    0.40030    0.53220    1.000
    C15      C        0.88030    0.78010    0.44960    1.000
    C16      C        0.16900    0.48500    0.21600    1.000
    C17      C        0.43100    0.90050    0.43760    1.000
    C18      C        0.02400    0.83000    0.50900    1.000
    Mn5      Mn       0.62455    0.91357    0.87020    1.000
    Mn6      Mn       0.42539    0.10038    0.68512    1.000
    O25      O        0.55680    0.79180    0.75383    1.000
    O26      O        0.44100    0.92260    0.63380    1.000
    O27      O        0.41000    0.00170    0.78130    1.000
    O28      O        0.32280    0.99850    0.85840    1.000
    O29      O        0.54320    0.73720    0.89180    1.000
    O30      O        0.52150    0.79360    0.99770    1.000
    O31      O        0.65480    0.07130    0.80200    1.000
    O32      O        0.88990    0.09880    0.87260    1.000
    O33      O        0.66350    0.02800    0.97830    1.000
    O34      O        0.88120    0.10320    0.03340    1.000
    O35      O        0.84230    0.83860    0.94220    1.000
    O36      O        0.79810    0.62610    0.90920    1.000
    C19      C        0.49250    0.81490    0.67110    1.000
    C20      C        0.30760    0.00920    0.78790    1.000
    C21      C        0.51820    0.71440    0.94780    1.000
    C22      C        0.76130    0.11900    0.80960    1.000
    C23      C        0.77480    0.09970    0.03220    1.000
    C24      C        0.88030    0.71990    0.94960    1.000
    C25      C        0.16900    0.01500    0.71600    1.000
    C26      C        0.43100    0.59950    0.93760    1.000
    C27      C        0.02400    0.67000    0.00900    1.000
    Mn7      Mn       0.37545    0.41357    0.62980    1.000
    Mn8      Mn       0.57461    0.60038    0.81488    1.000
    O37      O        0.44320    0.29180    0.74617    1.000
    O38      O        0.55900    0.42260    0.86620    1.000
    O39      O        0.59000    0.50170    0.71870    1.000
    O40      O        0.67720    0.49850    0.64160    1.000
    O41      O        0.45680    0.23720    0.60820    1.000
    O42      O        0.47850    0.29360    0.50230    1.000
    O43      O        0.34520    0.57130    0.69800    1.000
    O44      O        0.11010    0.59880    0.62740    1.000
    O45      O        0.33650    0.52800    0.52170    1.000
    O46      O        0.11880    0.60320    0.46660    1.000
    O47      O        0.15770    0.33860    0.55780    1.000
    O48      O        0.20190    0.12610    0.59080    1.000
    C28      C        0.50750    0.31490    0.82890    1.000
    C29      C        0.69240    0.50920    0.71210    1.000
    C30      C        0.48180    0.21440    0.55220    1.000
    C31      C        0.23870    0.61900    0.69040    1.000
    C32      C        0.22520    0.59970    0.46780    1.000
    C33      C        0.11970    0.21990    0.55040    1.000
    C34      C        0.83100    0.51500    0.78400    1.000
    C35      C        0.56900    0.09950    0.56240    1.000
    C36      C        0.97600    0.17000    0.49100    1.000
    Mn9      Mn       0.50000    0.00000    0.00000    1.000
    Mn10     Mn       0.50000    0.50000    0.50000    1.000
    Mn11     Mn       0.00000    0.00000    0.00000    1.000
    Mn12     Mn       0.00000    0.50000    0.50000    1.000
