# CIF file generated by openbabel 3.1.0, see https://openbabel.org
data_I
_chemical_name_common 'image0'
_cell_length_a 21.367
_cell_length_b 7.118
_cell_length_c 15.134
_cell_angle_alpha 90
_cell_angle_beta 90
_cell_angle_gamma 90
_space_group_name_H-M_alt 'P 1'
_space_group_name_Hall 'P 1'
loop_
    _symmetry_equiv_pos_as_xyz
    x,y,z
loop_
    _atom_site_label
    _atom_site_type_symbol
    _atom_site_fract_x
    _atom_site_fract_y
    _atom_site_fract_z
    _atom_site_occupancy
    N1       N        0.43370    0.15280    0.56140    1.000
    C1       C        0.38780    0.09870    0.61020    1.000
    H1       H        0.37730    0.97410    0.62110    1.000
    C2       C        0.24090    0.11300    0.81330    1.000
    H2       H        0.23320    0.01290    0.85470    1.000
    C3       C        0.29560    0.11000    0.76270    1.000
    H3       H        0.32770    0.01830    0.77230    1.000
    N2       N        0.93370    0.65280    0.06140    1.000
    C4       C        0.88780    0.59870    0.11020    1.000
    H4       H        0.87730    0.47410    0.12110    1.000
    C5       C        0.74090    0.61300    0.31330    1.000
    H5       H        0.73320    0.51290    0.35470    1.000
    C6       C        0.79560    0.61000    0.26270    1.000
    H6       H        0.82770    0.51830    0.27230    1.000
    N3       N        0.56630    0.34720    0.56140    1.000
    C7       C        0.61220    0.40130    0.61020    1.000
    H7       H        0.62270    0.52590    0.62110    1.000
    C8       C        0.75910    0.38700    0.81330    1.000
    H8       H        0.76680    0.48710    0.85470    1.000
    C9       C        0.70440    0.39000    0.76270    1.000
    H9       H        0.67230    0.48170    0.77230    1.000
    N4       N        0.06630    0.84720    0.06140    1.000
    C10      C        0.11220    0.90130    0.11020    1.000
    H10      H        0.12270    0.02590    0.12110    1.000
    C11      C        0.25910    0.88700    0.31330    1.000
    H11      H        0.26680    0.98710    0.35470    1.000
    C12      C        0.20440    0.89000    0.26270    1.000
    H12      H        0.17230    0.98170    0.27230    1.000
    N5       N        0.56630    0.65280    0.43860    1.000
    C13      C        0.61220    0.59870    0.38980    1.000
    H13      H        0.62270    0.47410    0.37890    1.000
    C14      C        0.75910    0.61300    0.18670    1.000
    H14      H        0.76680    0.51290    0.14530    1.000
    C15      C        0.70440    0.61000    0.23730    1.000
    H15      H        0.67230    0.51830    0.22770    1.000
    N6       N        0.06630    0.15280    0.93860    1.000
    C16      C        0.11220    0.09870    0.88980    1.000
    H16      H        0.12270    0.97410    0.87890    1.000
    C17      C        0.25910    0.11300    0.68670    1.000
    H17      H        0.26680    0.01290    0.64530    1.000
    C18      C        0.20440    0.11000    0.73730    1.000
    H18      H        0.17230    0.01830    0.72770    1.000
    N7       N        0.43370    0.84720    0.43860    1.000
    C19      C        0.38780    0.90130    0.38980    1.000
    H19      H        0.37730    0.02590    0.37890    1.000
    C20      C        0.24090    0.88700    0.18670    1.000
    H20      H        0.23320    0.98710    0.14530    1.000
    C21      C        0.29560    0.89000    0.23730    1.000
    H21      H        0.32770    0.98170    0.22770    1.000
    N8       N        0.93370    0.34720    0.93860    1.000
    C22      C        0.88780    0.40130    0.88980    1.000
    H22      H        0.87730    0.52590    0.87890    1.000
    C23      C        0.74090    0.38700    0.68670    1.000
    H23      H        0.73320    0.48710    0.64530    1.000
    C24      C        0.79560    0.39000    0.73730    1.000
    H24      H        0.82770    0.48170    0.72770    1.000
    N9       N        0.56630    0.84720    0.43860    1.000
    C25      C        0.61220    0.90130    0.38980    1.000
    H25      H        0.62270    0.02590    0.37890    1.000
    C26      C        0.75910    0.88700    0.18670    1.000
    H26      H        0.76680    0.98710    0.14530    1.000
    C27      C        0.70440    0.89000    0.23730    1.000
    H27      H        0.67230    0.98170    0.22770    1.000
    N10      N        0.06630    0.34720    0.93860    1.000
    C28      C        0.11220    0.40130    0.88980    1.000
    H28      H        0.12270    0.52590    0.87890    1.000
    C29      C        0.25910    0.38700    0.68670    1.000
    H29      H        0.26680    0.48710    0.64530    1.000
    C30      C        0.20440    0.39000    0.73730    1.000
    H30      H        0.17230    0.48170    0.72770    1.000
    N11      N        0.43370    0.65280    0.43860    1.000
    C31      C        0.38780    0.59870    0.38980    1.000
    H31      H        0.37730    0.47410    0.37890    1.000
    C32      C        0.24090    0.61300    0.18670    1.000
    H32      H        0.23320    0.51290    0.14530    1.000
    C33      C        0.29560    0.61000    0.23730    1.000
    H33      H        0.32770    0.51830    0.22770    1.000
    N12      N        0.93370    0.15280    0.93860    1.000
    C34      C        0.88780    0.09870    0.88980    1.000
    H34      H        0.87730    0.97410    0.87890    1.000
    C35      C        0.74090    0.11300    0.68670    1.000
    H35      H        0.73320    0.01290    0.64530    1.000
    C36      C        0.79560    0.11000    0.73730    1.000
    H36      H        0.82770    0.01830    0.72770    1.000
    N13      N        0.43370    0.34720    0.56140    1.000
    C37      C        0.38780    0.40130    0.61020    1.000
    H37      H        0.37730    0.52590    0.62110    1.000
    C38      C        0.24090    0.38700    0.81330    1.000
    H38      H        0.23320    0.48710    0.85470    1.000
    C39      C        0.29560    0.39000    0.76270    1.000
    H39      H        0.32770    0.48170    0.77230    1.000
    N14      N        0.93370    0.84720    0.06140    1.000
    C40      C        0.88780    0.90130    0.11020    1.000
    H40      H        0.87730    0.02590    0.12110    1.000
    C41      C        0.74090    0.88700    0.31330    1.000
    H41      H        0.73320    0.98710    0.35470    1.000
    C42      C        0.79560    0.89000    0.26270    1.000
    H42      H        0.82770    0.98170    0.27230    1.000
    N15      N        0.56630    0.15280    0.56140    1.000
    C43      C        0.61220    0.09870    0.61020    1.000
    H43      H        0.62270    0.97410    0.62110    1.000
    C44      C        0.75910    0.11300    0.81330    1.000
    H44      H        0.76680    0.01290    0.85470    1.000
    C45      C        0.70440    0.11000    0.76270    1.000
    H45      H        0.67230    0.01830    0.77230    1.000
    N16      N        0.06630    0.65280    0.06140    1.000
    C46      C        0.11220    0.59870    0.11020    1.000
    H46      H        0.12270    0.47410    0.12110    1.000
    C47      C        0.25910    0.61300    0.31330    1.000
    H47      H        0.26680    0.51290    0.35470    1.000
    C48      C        0.20440    0.61000    0.26270    1.000
    H48      H        0.17230    0.51830    0.27230    1.000
    Cu1      Cu       0.50000    0.00000    0.50000    1.000
    Cu2      Cu       0.00000    0.50000    0.00000    1.000
    Cu3      Cu       0.50000    0.50000    0.50000    1.000
    Cu4      Cu       0.00000    0.00000    0.00000    1.000
    N17      N        0.35690    0.25000    0.64340    1.000
    C49      C        0.30210    0.25000    0.69620    1.000
    N18      N        0.85690    0.75000    0.14340    1.000
    C50      C        0.80210    0.75000    0.19620    1.000
    N19      N        0.64310    0.25000    0.64340    1.000
    C51      C        0.69790    0.25000    0.69620    1.000
    N20      N        0.14310    0.75000    0.14340    1.000
    C52      C        0.19790    0.75000    0.19620    1.000
    N21      N        0.64310    0.75000    0.35660    1.000
    C53      C        0.69790    0.75000    0.30380    1.000
    N22      N        0.14310    0.25000    0.85660    1.000
    C54      C        0.19790    0.25000    0.80380    1.000
    N23      N        0.35690    0.75000    0.35660    1.000
    C55      C        0.30210    0.75000    0.30380    1.000
    N24      N        0.85690    0.25000    0.85660    1.000
    C56      C        0.80210    0.25000    0.80380    1.000
