# CIF file generated by openbabel 3.1.0, see https://openbabel.org
data_I
_chemical_name_common 'image0'
_cell_length_a 26.084
_cell_length_b 26.084
_cell_length_c 19.4082
_cell_angle_alpha 90
_cell_angle_beta 90
_cell_angle_gamma 120
_space_group_name_H-M_alt 'P 1'
_space_group_name_Hall 'P 1'
loop_
    _symmetry_equiv_pos_as_xyz
    x,y,z
loop_
    _atom_site_label
    _atom_site_type_symbol
    _atom_site_fract_x
    _atom_site_fract_y
    _atom_site_fract_z
    _atom_site_occupancy
    Zn1      Zn       0.43520    0.33202    0.40427    1.000
    N1       N        0.37930    0.33480    0.47480    1.000
    N2       N        0.37220    0.34110    0.44980    1.000
    C1       C        0.31820    0.29570    0.47440    1.000
    C2       C        0.22860    0.20570    0.47590    1.000
    H1       H        0.20480    0.16600    0.46050    1.000
    C3       C        0.28480    0.23930    0.45050    1.000
    H2       H        0.30010    0.22380    0.41710    1.000
    Cl1      Cl       0.17780    0.13600    0.45300    1.000
    N3       N        0.51580    0.39930    0.42880    1.000
    O1       O        0.46660    0.45250    0.37740    1.000
    O2       O        0.47560    0.44280    0.32200    1.000
    C4       C        0.54370    0.40120    0.48110    1.000
    H3       H        0.53100    0.37130    0.51540    1.000
    C5       C        0.56190    0.38710    0.46090    1.000
    H4       H        0.55550    0.35010    0.47770    1.000
    N4       N        0.40540    0.32230    0.30830    1.000
    O3       O        0.51020    0.32490    0.30470    1.000
    C6       C        0.35640    0.32110    0.28630    1.000
    H5       H        0.32650    0.32040    0.31480    1.000
    N5       N        0.43140    0.25870    0.43940    1.000
    C7       C        0.42550    0.23900    0.50580    1.000
    C8       C        0.41530    0.23390    0.62510    1.000
    H6       H        0.41230    0.24950    0.66810    1.000
    C9       C        0.41950    0.26540    0.56650    1.000
    H7       H        0.41840    0.30120    0.56680    1.000
    Cl2      Cl       0.40740    0.28000    0.69750    1.000
    Zn2      Zn       0.66798    0.10318    0.40427    1.000
    N6       N        0.66520    0.04450    0.47480    1.000
    N7       N        0.65890    0.03110    0.44980    1.000
    C10      C        0.70430    0.02250    0.47440    1.000
    C11      C        0.79430    0.02290    0.47590    1.000
    H8       H        0.83400    0.03880    0.46050    1.000
    C12      C        0.76070    0.04550    0.45050    1.000
    H9       H        0.77620    0.07630    0.41710    1.000
    Cl3      Cl       0.86400    0.04180    0.45300    1.000
    N8       N        0.60070    0.11650    0.42880    1.000
    O4       O        0.54750    0.01410    0.37740    1.000
    O5       O        0.55720    0.03280    0.32200    1.000
    C13      C        0.59880    0.14250    0.48110    1.000
    H10      H        0.62870    0.15970    0.51540    1.000
    C14      C        0.61290    0.17480    0.46090    1.000
    H11      H        0.64990    0.20540    0.47770    1.000
    N9       N        0.67770    0.08310    0.30830    1.000
    O6       O        0.67510    0.18530    0.30470    1.000
    C15      C        0.67890    0.03530    0.28630    1.000
    H12      H        0.67960    0.00610    0.31480    1.000
    N10      N        0.74130    0.17270    0.43940    1.000
    C16      C        0.76100    0.18650    0.50580    1.000
    C17      C        0.76610    0.18140    0.62510    1.000
    H13      H        0.75050    0.16280    0.66810    1.000
    C18      C        0.73460    0.15410    0.56650    1.000
    H14      H        0.69880    0.11720    0.56680    1.000
    Cl4      Cl       0.72000    0.12740    0.69750    1.000
    Zn3      Zn       0.89682    0.56480    0.40427    1.000
    N11      N        0.95550    0.62070    0.47480    1.000
    N12      N        0.96890    0.62780    0.44980    1.000
    C19      C        0.97750    0.68180    0.47440    1.000
    C20      C        0.97710    0.77140    0.47590    1.000
    H15      H        0.96120    0.79520    0.46050    1.000
    C21      C        0.95450    0.71520    0.45050    1.000
    H16      H        0.92370    0.69990    0.41710    1.000
    Cl5      Cl       0.95820    0.82220    0.45300    1.000
    N13      N        0.88350    0.48420    0.42880    1.000
    O7       O        0.98590    0.53340    0.37740    1.000
    O8       O        0.96720    0.52440    0.32200    1.000
    C22      C        0.85750    0.45630    0.48110    1.000
    H17      H        0.84030    0.46900    0.51540    1.000
    C23      C        0.82520    0.43810    0.46090    1.000
    H18      H        0.79460    0.44450    0.47770    1.000
    N14      N        0.91690    0.59460    0.30830    1.000
    O9       O        0.81470    0.48980    0.30470    1.000
    C24      C        0.96470    0.64360    0.28630    1.000
    H19      H        0.99390    0.67350    0.31480    1.000
    N15      N        0.82730    0.56860    0.43940    1.000
    C25      C        0.81350    0.57450    0.50580    1.000
    C26      C        0.81860    0.58470    0.62510    1.000
    H20      H        0.83720    0.58770    0.66810    1.000
    C27      C        0.84590    0.58050    0.56650    1.000
    H21      H        0.88280    0.58160    0.56680    1.000
    Cl6      Cl       0.87260    0.59260    0.69750    1.000
    Zn4      Zn       0.56480    0.66798    0.90427    1.000
    N16      N        0.62070    0.66520    0.97480    1.000
    N17      N        0.62780    0.65890    0.94980    1.000
    C28      C        0.68180    0.70430    0.97440    1.000
    C29      C        0.77140    0.79430    0.97590    1.000
    H22      H        0.79520    0.83400    0.96050    1.000
    C30      C        0.71520    0.76070    0.95050    1.000
    H23      H        0.69990    0.77620    0.91710    1.000
    Cl7      Cl       0.82220    0.86400    0.95300    1.000
    N18      N        0.48420    0.60070    0.92880    1.000
    O10      O        0.53340    0.54750    0.87740    1.000
    O11      O        0.52440    0.55720    0.82200    1.000
    C31      C        0.45630    0.59880    0.98110    1.000
    H24      H        0.46900    0.62870    0.01540    1.000
    C32      C        0.43810    0.61290    0.96090    1.000
    H25      H        0.44450    0.64990    0.97770    1.000
    N19      N        0.59460    0.67770    0.80830    1.000
    O12      O        0.48980    0.67510    0.80470    1.000
    C33      C        0.64360    0.67890    0.78630    1.000
    H26      H        0.67350    0.67960    0.81480    1.000
    N20      N        0.56860    0.74130    0.93940    1.000
    C34      C        0.57450    0.76100    0.00580    1.000
    C35      C        0.58470    0.76610    0.12510    1.000
    H27      H        0.58770    0.75050    0.16810    1.000
    C36      C        0.58050    0.73460    0.06650    1.000
    H28      H        0.58160    0.69880    0.06680    1.000
    Cl8      Cl       0.59260    0.72000    0.19750    1.000
    Zn5      Zn       0.33202    0.89682    0.90427    1.000
    N21      N        0.33480    0.95550    0.97480    1.000
    N22      N        0.34110    0.96890    0.94980    1.000
    C37      C        0.29570    0.97750    0.97440    1.000
    C38      C        0.20570    0.97710    0.97590    1.000
    H29      H        0.16600    0.96120    0.96050    1.000
    C39      C        0.23930    0.95450    0.95050    1.000
    H30      H        0.22380    0.92370    0.91710    1.000
    Cl9      Cl       0.13600    0.95820    0.95300    1.000
    N23      N        0.39930    0.88350    0.92880    1.000
    O13      O        0.45250    0.98590    0.87740    1.000
    O14      O        0.44280    0.96720    0.82200    1.000
    C40      C        0.40120    0.85750    0.98110    1.000
    H31      H        0.37130    0.84030    0.01540    1.000
    C41      C        0.38710    0.82520    0.96090    1.000
    H32      H        0.35010    0.79460    0.97770    1.000
    N24      N        0.32230    0.91690    0.80830    1.000
    O15      O        0.32490    0.81470    0.80470    1.000
    C42      C        0.32110    0.96470    0.78630    1.000
    H33      H        0.32040    0.99390    0.81480    1.000
    N25      N        0.25870    0.82730    0.93940    1.000
    C43      C        0.23900    0.81350    0.00580    1.000
    C44      C        0.23390    0.81860    0.12510    1.000
    H34      H        0.24950    0.83720    0.16810    1.000
    C45      C        0.26540    0.84590    0.06650    1.000
    H35      H        0.30120    0.88280    0.06680    1.000
    Cl10     Cl       0.28000    0.87260    0.19750    1.000
    Zn6      Zn       0.10318    0.43520    0.90427    1.000
    N26      N        0.04450    0.37930    0.97480    1.000
    N27      N        0.03110    0.37220    0.94980    1.000
    C46      C        0.02250    0.31820    0.97440    1.000
    C47      C        0.02290    0.22860    0.97590    1.000
    H36      H        0.03880    0.20480    0.96050    1.000
    C48      C        0.04550    0.28480    0.95050    1.000
    H37      H        0.07630    0.30010    0.91710    1.000
    Cl11     Cl       0.04180    0.17780    0.95300    1.000
    N28      N        0.11650    0.51580    0.92880    1.000
    O16      O        0.01410    0.46660    0.87740    1.000
    O17      O        0.03280    0.47560    0.82200    1.000
    C49      C        0.14250    0.54370    0.98110    1.000
    H38      H        0.15970    0.53100    0.01540    1.000
    C50      C        0.17480    0.56190    0.96090    1.000
    H39      H        0.20540    0.55550    0.97770    1.000
    N29      N        0.08310    0.40540    0.80830    1.000
    O18      O        0.18530    0.51020    0.80470    1.000
    C51      C        0.03530    0.35640    0.78630    1.000
    H40      H        0.00610    0.32650    0.81480    1.000
    N30      N        0.17270    0.43140    0.93940    1.000
    C52      C        0.18650    0.42550    0.00580    1.000
    C53      C        0.18140    0.41530    0.12510    1.000
    H41      H        0.16280    0.41230    0.16810    1.000
    C54      C        0.15410    0.41950    0.06650    1.000
    H42      H        0.11720    0.41840    0.06680    1.000
    Cl12     Cl       0.12740    0.40740    0.19750    1.000
    Zn7      Zn       0.33202    0.43520    0.59573    1.000
    N31      N        0.33480    0.37930    0.52520    1.000
    N32      N        0.34110    0.37220    0.55020    1.000
    C55      C        0.29570    0.31820    0.52560    1.000
    C56      C        0.20570    0.22860    0.52410    1.000
    H43      H        0.16600    0.20480    0.53950    1.000
    C57      C        0.23930    0.28480    0.54950    1.000
    H44      H        0.22380    0.30010    0.58290    1.000
    Cl13     Cl       0.13600    0.17780    0.54700    1.000
    N33      N        0.39930    0.51580    0.57120    1.000
    O19      O        0.45250    0.46660    0.62260    1.000
    O20      O        0.44280    0.47560    0.67800    1.000
    C58      C        0.40120    0.54370    0.51890    1.000
    H45      H        0.37130    0.53100    0.48460    1.000
    C59      C        0.38710    0.56190    0.53910    1.000
    H46      H        0.35010    0.55550    0.52230    1.000
    N34      N        0.32230    0.40540    0.69170    1.000
    O21      O        0.32490    0.51020    0.69530    1.000
    C60      C        0.32110    0.35640    0.71370    1.000
    H47      H        0.32040    0.32650    0.68520    1.000
    N35      N        0.25870    0.43140    0.56060    1.000
    C61      C        0.23900    0.42550    0.49420    1.000
    C62      C        0.23390    0.41530    0.37490    1.000
    H48      H        0.24950    0.41230    0.33190    1.000
    C63      C        0.26540    0.41950    0.43350    1.000
    H49      H        0.30120    0.41840    0.43320    1.000
    Cl14     Cl       0.28000    0.40740    0.30250    1.000
    Zn8      Zn       0.10318    0.66798    0.59573    1.000
    N36      N        0.04450    0.66520    0.52520    1.000
    N37      N        0.03110    0.65890    0.55020    1.000
    C64      C        0.02250    0.70430    0.52560    1.000
    C65      C        0.02290    0.79430    0.52410    1.000
    H50      H        0.03880    0.83400    0.53950    1.000
    C66      C        0.04550    0.76070    0.54950    1.000
    H51      H        0.07630    0.77620    0.58290    1.000
    Cl15     Cl       0.04180    0.86400    0.54700    1.000
    N38      N        0.11650    0.60070    0.57120    1.000
    O22      O        0.01410    0.54750    0.62260    1.000
    O23      O        0.03280    0.55720    0.67800    1.000
    C67      C        0.14250    0.59880    0.51890    1.000
    H52      H        0.15970    0.62870    0.48460    1.000
    C68      C        0.17480    0.61290    0.53910    1.000
    H53      H        0.20540    0.64990    0.52230    1.000
    N39      N        0.08310    0.67770    0.69170    1.000
    O24      O        0.18530    0.67510    0.69530    1.000
    C69      C        0.03530    0.67890    0.71370    1.000
    H54      H        0.00610    0.67960    0.68520    1.000
    N40      N        0.17270    0.74130    0.56060    1.000
    C70      C        0.18650    0.76100    0.49420    1.000
    C71      C        0.18140    0.76610    0.37490    1.000
    H55      H        0.16280    0.75050    0.33190    1.000
    C72      C        0.15410    0.73460    0.43350    1.000
    H56      H        0.11720    0.69880    0.43320    1.000
    Cl16     Cl       0.12740    0.72000    0.30250    1.000
    Zn9      Zn       0.56480    0.89682    0.59573    1.000
    N41      N        0.62070    0.95550    0.52520    1.000
    N42      N        0.62780    0.96890    0.55020    1.000
    C73      C        0.68180    0.97750    0.52560    1.000
    C74      C        0.77140    0.97710    0.52410    1.000
    H57      H        0.79520    0.96120    0.53950    1.000
    C75      C        0.71520    0.95450    0.54950    1.000
    H58      H        0.69990    0.92370    0.58290    1.000
    Cl17     Cl       0.82220    0.95820    0.54700    1.000
    N43      N        0.48420    0.88350    0.57120    1.000
    O25      O        0.53340    0.98590    0.62260    1.000
    O26      O        0.52440    0.96720    0.67800    1.000
    C76      C        0.45630    0.85750    0.51890    1.000
    H59      H        0.46900    0.84030    0.48460    1.000
    C77      C        0.43810    0.82520    0.53910    1.000
    H60      H        0.44450    0.79460    0.52230    1.000
    N44      N        0.59460    0.91690    0.69170    1.000
    O27      O        0.48980    0.81470    0.69530    1.000
    C78      C        0.64360    0.96470    0.71370    1.000
    H61      H        0.67350    0.99390    0.68520    1.000
    N45      N        0.56860    0.82730    0.56060    1.000
    C79      C        0.57450    0.81350    0.49420    1.000
    C80      C        0.58470    0.81860    0.37490    1.000
    H62      H        0.58770    0.83720    0.33190    1.000
    C81      C        0.58050    0.84590    0.43350    1.000
    H63      H        0.58160    0.88280    0.43320    1.000
    Cl18     Cl       0.59260    0.87260    0.30250    1.000
    Zn10     Zn       0.66798    0.56480    0.09573    1.000
    N46      N        0.66520    0.62070    0.02520    1.000
    N47      N        0.65890    0.62780    0.05020    1.000
    C82      C        0.70430    0.68180    0.02560    1.000
    C83      C        0.79430    0.77140    0.02410    1.000
    H64      H        0.83400    0.79520    0.03950    1.000
    C84      C        0.76070    0.71520    0.04950    1.000
    H65      H        0.77620    0.69990    0.08290    1.000
    Cl19     Cl       0.86400    0.82220    0.04700    1.000
    N48      N        0.60070    0.48420    0.07120    1.000
    O28      O        0.54750    0.53340    0.12260    1.000
    O29      O        0.55720    0.52440    0.17800    1.000
    C85      C        0.59880    0.45630    0.01890    1.000
    H66      H        0.62870    0.46900    0.98460    1.000
    C86      C        0.61290    0.43810    0.03910    1.000
    H67      H        0.64990    0.44450    0.02230    1.000
    N49      N        0.67770    0.59460    0.19170    1.000
    O30      O        0.67510    0.48980    0.19530    1.000
    C87      C        0.67890    0.64360    0.21370    1.000
    H68      H        0.67960    0.67350    0.18520    1.000
    N50      N        0.74130    0.56860    0.06060    1.000
    C88      C        0.76100    0.57450    0.99420    1.000
    C89      C        0.76610    0.58470    0.87490    1.000
    H69      H        0.75050    0.58770    0.83190    1.000
    C90      C        0.73460    0.58050    0.93350    1.000
    H70      H        0.69880    0.58160    0.93320    1.000
    Cl20     Cl       0.72000    0.59260    0.80250    1.000
    Zn11     Zn       0.89682    0.33202    0.09573    1.000
    N51      N        0.95550    0.33480    0.02520    1.000
    N52      N        0.96890    0.34110    0.05020    1.000
    C91      C        0.97750    0.29570    0.02560    1.000
    C92      C        0.97710    0.20570    0.02410    1.000
    H71      H        0.96120    0.16600    0.03950    1.000
    C93      C        0.95450    0.23930    0.04950    1.000
    H72      H        0.92370    0.22380    0.08290    1.000
    Cl21     Cl       0.95820    0.13600    0.04700    1.000
    N53      N        0.88350    0.39930    0.07120    1.000
    O31      O        0.98590    0.45250    0.12260    1.000
    O32      O        0.96720    0.44280    0.17800    1.000
    C94      C        0.85750    0.40120    0.01890    1.000
    H73      H        0.84030    0.37130    0.98460    1.000
    C95      C        0.82520    0.38710    0.03910    1.000
    H74      H        0.79460    0.35010    0.02230    1.000
    N54      N        0.91690    0.32230    0.19170    1.000
    O33      O        0.81470    0.32490    0.19530    1.000
    C96      C        0.96470    0.32110    0.21370    1.000
    H75      H        0.99390    0.32040    0.18520    1.000
    N55      N        0.82730    0.25870    0.06060    1.000
    C97      C        0.81350    0.23900    0.99420    1.000
    C98      C        0.81860    0.23390    0.87490    1.000
    H76      H        0.83720    0.24950    0.83190    1.000
    C99      C        0.84590    0.26540    0.93350    1.000
    H77      H        0.88280    0.30120    0.93320    1.000
    Cl22     Cl       0.87260    0.28000    0.80250    1.000
    Zn12     Zn       0.43520    0.10318    0.09573    1.000
    N56      N        0.37930    0.04450    0.02520    1.000
    N57      N        0.37220    0.03110    0.05020    1.000
    C100     C        0.31820    0.02250    0.02560    1.000
    C101     C        0.22860    0.02290    0.02410    1.000
    H78      H        0.20480    0.03880    0.03950    1.000
    C102     C        0.28480    0.04550    0.04950    1.000
    H79      H        0.30010    0.07630    0.08290    1.000
    Cl23     Cl       0.17780    0.04180    0.04700    1.000
    N58      N        0.51580    0.11650    0.07120    1.000
    O34      O        0.46660    0.01410    0.12260    1.000
    O35      O        0.47560    0.03280    0.17800    1.000
    C103     C        0.54370    0.14250    0.01890    1.000
    H80      H        0.53100    0.15970    0.98460    1.000
    C104     C        0.56190    0.17480    0.03910    1.000
    H81      H        0.55550    0.20540    0.02230    1.000
    N59      N        0.40540    0.08310    0.19170    1.000
    O36      O        0.51020    0.18530    0.19530    1.000
    C105     C        0.35640    0.03530    0.21370    1.000
    H82      H        0.32650    0.00610    0.18520    1.000
    N60      N        0.43140    0.17270    0.06060    1.000
    C106     C        0.42550    0.18650    0.99420    1.000
    C107     C        0.41530    0.18140    0.87490    1.000
    H83      H        0.41230    0.16280    0.83190    1.000
    C108     C        0.41950    0.15410    0.93350    1.000
    H84      H        0.41840    0.11720    0.93320    1.000
    Cl24     Cl       0.40740    0.12740    0.80250    1.000
    Zn13     Zn       0.56480    0.66798    0.59573    1.000
    N61      N        0.62070    0.66520    0.52520    1.000
    N62      N        0.62780    0.65890    0.55020    1.000
    C109     C        0.68180    0.70430    0.52560    1.000
    C110     C        0.77140    0.79430    0.52410    1.000
    H85      H        0.79520    0.83400    0.53950    1.000
    C111     C        0.71520    0.76070    0.54950    1.000
    H86      H        0.69990    0.77620    0.58290    1.000
    Cl25     Cl       0.82220    0.86400    0.54700    1.000
    N63      N        0.48420    0.60070    0.57120    1.000
    O37      O        0.53340    0.54750    0.62260    1.000
    O38      O        0.52440    0.55720    0.67800    1.000
    C112     C        0.45630    0.59880    0.51890    1.000
    H87      H        0.46900    0.62870    0.48460    1.000
    C113     C        0.43810    0.61290    0.53910    1.000
    H88      H        0.44450    0.64990    0.52230    1.000
    N64      N        0.59460    0.67770    0.69170    1.000
    O39      O        0.48980    0.67510    0.69530    1.000
    C114     C        0.64360    0.67890    0.71370    1.000
    H89      H        0.67350    0.67960    0.68520    1.000
    N65      N        0.56860    0.74130    0.56060    1.000
    C115     C        0.57450    0.76100    0.49420    1.000
    C116     C        0.58470    0.76610    0.37490    1.000
    H90      H        0.58770    0.75050    0.33190    1.000
    C117     C        0.58050    0.73460    0.43350    1.000
    H91      H        0.58160    0.69880    0.43320    1.000
    Cl26     Cl       0.59260    0.72000    0.30250    1.000
    Zn14     Zn       0.33202    0.89682    0.59573    1.000
    N66      N        0.33480    0.95550    0.52520    1.000
    N67      N        0.34110    0.96890    0.55020    1.000
    C118     C        0.29570    0.97750    0.52560    1.000
    C119     C        0.20570    0.97710    0.52410    1.000
    H92      H        0.16600    0.96120    0.53950    1.000
    C120     C        0.23930    0.95450    0.54950    1.000
    H93      H        0.22380    0.92370    0.58290    1.000
    Cl27     Cl       0.13600    0.95820    0.54700    1.000
    N68      N        0.39930    0.88350    0.57120    1.000
    O40      O        0.45250    0.98590    0.62260    1.000
    O41      O        0.44280    0.96720    0.67800    1.000
    C121     C        0.40120    0.85750    0.51890    1.000
    H94      H        0.37130    0.84030    0.48460    1.000
    C122     C        0.38710    0.82520    0.53910    1.000
    H95      H        0.35010    0.79460    0.52230    1.000
    N69      N        0.32230    0.91690    0.69170    1.000
    O42      O        0.32490    0.81470    0.69530    1.000
    C123     C        0.32110    0.96470    0.71370    1.000
    H96      H        0.32040    0.99390    0.68520    1.000
    N70      N        0.25870    0.82730    0.56060    1.000
    C124     C        0.23900    0.81350    0.49420    1.000
    C125     C        0.23390    0.81860    0.37490    1.000
    H97      H        0.24950    0.83720    0.33190    1.000
    C126     C        0.26540    0.84590    0.43350    1.000
    H98      H        0.30120    0.88280    0.43320    1.000
    Cl28     Cl       0.28000    0.87260    0.30250    1.000
    Zn15     Zn       0.10318    0.43520    0.59573    1.000
    N71      N        0.04450    0.37930    0.52520    1.000
    N72      N        0.03110    0.37220    0.55020    1.000
    C127     C        0.02250    0.31820    0.52560    1.000
    C128     C        0.02290    0.22860    0.52410    1.000
    H99      H        0.03880    0.20480    0.53950    1.000
    C129     C        0.04550    0.28480    0.54950    1.000
    H100     H        0.07630    0.30010    0.58290    1.000
    Cl29     Cl       0.04180    0.17780    0.54700    1.000
    N73      N        0.11650    0.51580    0.57120    1.000
    O43      O        0.01410    0.46660    0.62260    1.000
    O44      O        0.03280    0.47560    0.67800    1.000
    C130     C        0.14250    0.54370    0.51890    1.000
    H101     H        0.15970    0.53100    0.48460    1.000
    C131     C        0.17480    0.56190    0.53910    1.000
    H102     H        0.20540    0.55550    0.52230    1.000
    N74      N        0.08310    0.40540    0.69170    1.000
    O45      O        0.18530    0.51020    0.69530    1.000
    C132     C        0.03530    0.35640    0.71370    1.000
    H103     H        0.00610    0.32650    0.68520    1.000
    N75      N        0.17270    0.43140    0.56060    1.000
    C133     C        0.18650    0.42550    0.49420    1.000
    C134     C        0.18140    0.41530    0.37490    1.000
    H104     H        0.16280    0.41230    0.33190    1.000
    C135     C        0.15410    0.41950    0.43350    1.000
    H105     H        0.11720    0.41840    0.43320    1.000
    Cl30     Cl       0.12740    0.40740    0.30250    1.000
    Zn16     Zn       0.43520    0.33202    0.09573    1.000
    N76      N        0.37930    0.33480    0.02520    1.000
    N77      N        0.37220    0.34110    0.05020    1.000
    C136     C        0.31820    0.29570    0.02560    1.000
    C137     C        0.22860    0.20570    0.02410    1.000
    H106     H        0.20480    0.16600    0.03950    1.000
    C138     C        0.28480    0.23930    0.04950    1.000
    H107     H        0.30010    0.22380    0.08290    1.000
    Cl31     Cl       0.17780    0.13600    0.04700    1.000
    N78      N        0.51580    0.39930    0.07120    1.000
    O46      O        0.46660    0.45250    0.12260    1.000
    O47      O        0.47560    0.44280    0.17800    1.000
    C139     C        0.54370    0.40120    0.01890    1.000
    H108     H        0.53100    0.37130    0.98460    1.000
    C140     C        0.56190    0.38710    0.03910    1.000
    H109     H        0.55550    0.35010    0.02230    1.000
    N79      N        0.40540    0.32230    0.19170    1.000
    O48      O        0.51020    0.32490    0.19530    1.000
    C141     C        0.35640    0.32110    0.21370    1.000
    H110     H        0.32650    0.32040    0.18520    1.000
    N80      N        0.43140    0.25870    0.06060    1.000
    C142     C        0.42550    0.23900    0.99420    1.000
    C143     C        0.41530    0.23390    0.87490    1.000
    H111     H        0.41230    0.24950    0.83190    1.000
    C144     C        0.41950    0.26540    0.93350    1.000
    H112     H        0.41840    0.30120    0.93320    1.000
    Cl32     Cl       0.40740    0.28000    0.80250    1.000
    Zn17     Zn       0.66798    0.10318    0.09573    1.000
    N81      N        0.66520    0.04450    0.02520    1.000
    N82      N        0.65890    0.03110    0.05020    1.000
    C145     C        0.70430    0.02250    0.02560    1.000
    C146     C        0.79430    0.02290    0.02410    1.000
    H113     H        0.83400    0.03880    0.03950    1.000
    C147     C        0.76070    0.04550    0.04950    1.000
    H114     H        0.77620    0.07630    0.08290    1.000
    Cl33     Cl       0.86400    0.04180    0.04700    1.000
    N83      N        0.60070    0.11650    0.07120    1.000
    O49      O        0.54750    0.01410    0.12260    1.000
    O50      O        0.55720    0.03280    0.17800    1.000
    C148     C        0.59880    0.14250    0.01890    1.000
    H115     H        0.62870    0.15970    0.98460    1.000
    C149     C        0.61290    0.17480    0.03910    1.000
    H116     H        0.64990    0.20540    0.02230    1.000
    N84      N        0.67770    0.08310    0.19170    1.000
    O51      O        0.67510    0.18530    0.19530    1.000
    C150     C        0.67890    0.03530    0.21370    1.000
    H117     H        0.67960    0.00610    0.18520    1.000
    N85      N        0.74130    0.17270    0.06060    1.000
    C151     C        0.76100    0.18650    0.99420    1.000
    C152     C        0.76610    0.18140    0.87490    1.000
    H118     H        0.75050    0.16280    0.83190    1.000
    C153     C        0.73460    0.15410    0.93350    1.000
    H119     H        0.69880    0.11720    0.93320    1.000
    Cl34     Cl       0.72000    0.12740    0.80250    1.000
    Zn18     Zn       0.89682    0.56480    0.09573    1.000
    N86      N        0.95550    0.62070    0.02520    1.000
    N87      N        0.96890    0.62780    0.05020    1.000
    C154     C        0.97750    0.68180    0.02560    1.000
    C155     C        0.97710    0.77140    0.02410    1.000
    H120     H        0.96120    0.79520    0.03950    1.000
    C156     C        0.95450    0.71520    0.04950    1.000
    H121     H        0.92370    0.69990    0.08290    1.000
    Cl35     Cl       0.95820    0.82220    0.04700    1.000
    N88      N        0.88350    0.48420    0.07120    1.000
    O52      O        0.98590    0.53340    0.12260    1.000
    O53      O        0.96720    0.52440    0.17800    1.000
    C157     C        0.85750    0.45630    0.01890    1.000
    H122     H        0.84030    0.46900    0.98460    1.000
    C158     C        0.82520    0.43810    0.03910    1.000
    H123     H        0.79460    0.44450    0.02230    1.000
    N89      N        0.91690    0.59460    0.19170    1.000
    O54      O        0.81470    0.48980    0.19530    1.000
    C159     C        0.96470    0.64360    0.21370    1.000
    H124     H        0.99390    0.67350    0.18520    1.000
    N90      N        0.82730    0.56860    0.06060    1.000
    C160     C        0.81350    0.57450    0.99420    1.000
    C161     C        0.81860    0.58470    0.87490    1.000
    H125     H        0.83720    0.58770    0.83190    1.000
    C162     C        0.84590    0.58050    0.93350    1.000
    H126     H        0.88280    0.58160    0.93320    1.000
    Cl36     Cl       0.87260    0.59260    0.80250    1.000
    Zn19     Zn       0.66798    0.56480    0.40427    1.000
    N91      N        0.66520    0.62070    0.47480    1.000
    N92      N        0.65890    0.62780    0.44980    1.000
    C163     C        0.70430    0.68180    0.47440    1.000
    C164     C        0.79430    0.77140    0.47590    1.000
    H127     H        0.83400    0.79520    0.46050    1.000
    C165     C        0.76070    0.71520    0.45050    1.000
    H128     H        0.77620    0.69990    0.41710    1.000
    Cl37     Cl       0.86400    0.82220    0.45300    1.000
    N93      N        0.60070    0.48420    0.42880    1.000
    O55      O        0.54750    0.53340    0.37740    1.000
    O56      O        0.55720    0.52440    0.32200    1.000
    C166     C        0.59880    0.45630    0.48110    1.000
    H129     H        0.62870    0.46900    0.51540    1.000
    C167     C        0.61290    0.43810    0.46090    1.000
    H130     H        0.64990    0.44450    0.47770    1.000
    N94      N        0.67770    0.59460    0.30830    1.000
    O57      O        0.67510    0.48980    0.30470    1.000
    C168     C        0.67890    0.64360    0.28630    1.000
    H131     H        0.67960    0.67350    0.31480    1.000
    N95      N        0.74130    0.56860    0.43940    1.000
    C169     C        0.76100    0.57450    0.50580    1.000
    C170     C        0.76610    0.58470    0.62510    1.000
    H132     H        0.75050    0.58770    0.66810    1.000
    C171     C        0.73460    0.58050    0.56650    1.000
    H133     H        0.69880    0.58160    0.56680    1.000
    Cl38     Cl       0.72000    0.59260    0.69750    1.000
    Zn20     Zn       0.89682    0.33202    0.40427    1.000
    N96      N        0.95550    0.33480    0.47480    1.000
    N97      N        0.96890    0.34110    0.44980    1.000
    C172     C        0.97750    0.29570    0.47440    1.000
    C173     C        0.97710    0.20570    0.47590    1.000
    H134     H        0.96120    0.16600    0.46050    1.000
    C174     C        0.95450    0.23930    0.45050    1.000
    H135     H        0.92370    0.22380    0.41710    1.000
    Cl39     Cl       0.95820    0.13600    0.45300    1.000
    N98      N        0.88350    0.39930    0.42880    1.000
    O58      O        0.98590    0.45250    0.37740    1.000
    O59      O        0.96720    0.44280    0.32200    1.000
    C175     C        0.85750    0.40120    0.48110    1.000
    H136     H        0.84030    0.37130    0.51540    1.000
    C176     C        0.82520    0.38710    0.46090    1.000
    H137     H        0.79460    0.35010    0.47770    1.000
    N99      N        0.91690    0.32230    0.30830    1.000
    O60      O        0.81470    0.32490    0.30470    1.000
    C177     C        0.96470    0.32110    0.28630    1.000
    H138     H        0.99390    0.32040    0.31480    1.000
    N100     N        0.82730    0.25870    0.43940    1.000
    C178     C        0.81350    0.23900    0.50580    1.000
    C179     C        0.81860    0.23390    0.62510    1.000
    H139     H        0.83720    0.24950    0.66810    1.000
    C180     C        0.84590    0.26540    0.56650    1.000
    H140     H        0.88280    0.30120    0.56680    1.000
    Cl40     Cl       0.87260    0.28000    0.69750    1.000
    Zn21     Zn       0.43520    0.10318    0.40427    1.000
    N101     N        0.37930    0.04450    0.47480    1.000
    N102     N        0.37220    0.03110    0.44980    1.000
    C181     C        0.31820    0.02250    0.47440    1.000
    C182     C        0.22860    0.02290    0.47590    1.000
    H141     H        0.20480    0.03880    0.46050    1.000
    C183     C        0.28480    0.04550    0.45050    1.000
    H142     H        0.30010    0.07630    0.41710    1.000
    Cl41     Cl       0.17780    0.04180    0.45300    1.000
    N103     N        0.51580    0.11650    0.42880    1.000
    O61      O        0.46660    0.01410    0.37740    1.000
    O62      O        0.47560    0.03280    0.32200    1.000
    C184     C        0.54370    0.14250    0.48110    1.000
    H143     H        0.53100    0.15970    0.51540    1.000
    C185     C        0.56190    0.17480    0.46090    1.000
    H144     H        0.55550    0.20540    0.47770    1.000
    N104     N        0.40540    0.08310    0.30830    1.000
    O63      O        0.51020    0.18530    0.30470    1.000
    C186     C        0.35640    0.03530    0.28630    1.000
    H145     H        0.32650    0.00610    0.31480    1.000
    N105     N        0.43140    0.17270    0.43940    1.000
    C187     C        0.42550    0.18650    0.50580    1.000
    C188     C        0.41530    0.18140    0.62510    1.000
    H146     H        0.41230    0.16280    0.66810    1.000
    C189     C        0.41950    0.15410    0.56650    1.000
    H147     H        0.41840    0.11720    0.56680    1.000
    Cl42     Cl       0.40740    0.12740    0.69750    1.000
    Zn22     Zn       0.33202    0.43520    0.90427    1.000
    N106     N        0.33480    0.37930    0.97480    1.000
    N107     N        0.34110    0.37220    0.94980    1.000
    C190     C        0.29570    0.31820    0.97440    1.000
    C191     C        0.20570    0.22860    0.97590    1.000
    H148     H        0.16600    0.20480    0.96050    1.000
    C192     C        0.23930    0.28480    0.95050    1.000
    H149     H        0.22380    0.30010    0.91710    1.000
    Cl43     Cl       0.13600    0.17780    0.95300    1.000
    N108     N        0.39930    0.51580    0.92880    1.000
    O64      O        0.45250    0.46660    0.87740    1.000
    O65      O        0.44280    0.47560    0.82200    1.000
    C193     C        0.40120    0.54370    0.98110    1.000
    H150     H        0.37130    0.53100    0.01540    1.000
    C194     C        0.38710    0.56190    0.96090    1.000
    H151     H        0.35010    0.55550    0.97770    1.000
    N109     N        0.32230    0.40540    0.80830    1.000
    O66      O        0.32490    0.51020    0.80470    1.000
    C195     C        0.32110    0.35640    0.78630    1.000
    H152     H        0.32040    0.32650    0.81480    1.000
    N110     N        0.25870    0.43140    0.93940    1.000
    C196     C        0.23900    0.42550    0.00580    1.000
    C197     C        0.23390    0.41530    0.12510    1.000
    H153     H        0.24950    0.41230    0.16810    1.000
    C198     C        0.26540    0.41950    0.06650    1.000
    H154     H        0.30120    0.41840    0.06680    1.000
    Cl44     Cl       0.28000    0.40740    0.19750    1.000
    Zn23     Zn       0.10318    0.66798    0.90427    1.000
    N111     N        0.04450    0.66520    0.97480    1.000
    N112     N        0.03110    0.65890    0.94980    1.000
    C199     C        0.02250    0.70430    0.97440    1.000
    C200     C        0.02290    0.79430    0.97590    1.000
    H155     H        0.03880    0.83400    0.96050    1.000
    C201     C        0.04550    0.76070    0.95050    1.000
    H156     H        0.07630    0.77620    0.91710    1.000
    Cl45     Cl       0.04180    0.86400    0.95300    1.000
    N113     N        0.11650    0.60070    0.92880    1.000
    O67      O        0.01410    0.54750    0.87740    1.000
    O68      O        0.03280    0.55720    0.82200    1.000
    C202     C        0.14250    0.59880    0.98110    1.000
    H157     H        0.15970    0.62870    0.01540    1.000
    C203     C        0.17480    0.61290    0.96090    1.000
    H158     H        0.20540    0.64990    0.97770    1.000
    N114     N        0.08310    0.67770    0.80830    1.000
    O69      O        0.18530    0.67510    0.80470    1.000
    C204     C        0.03530    0.67890    0.78630    1.000
    H159     H        0.00610    0.67960    0.81480    1.000
    N115     N        0.17270    0.74130    0.93940    1.000
    C205     C        0.18650    0.76100    0.00580    1.000
    C206     C        0.18140    0.76610    0.12510    1.000
    H160     H        0.16280    0.75050    0.16810    1.000
    C207     C        0.15410    0.73460    0.06650    1.000
    H161     H        0.11720    0.69880    0.06680    1.000
    Cl46     Cl       0.12740    0.72000    0.19750    1.000
    Zn24     Zn       0.56480    0.89682    0.90427    1.000
    N116     N        0.62070    0.95550    0.97480    1.000
    N117     N        0.62780    0.96890    0.94980    1.000
    C208     C        0.68180    0.97750    0.97440    1.000
    C209     C        0.77140    0.97710    0.97590    1.000
    H162     H        0.79520    0.96120    0.96050    1.000
    C210     C        0.71520    0.95450    0.95050    1.000
    H163     H        0.69990    0.92370    0.91710    1.000
    Cl47     Cl       0.82220    0.95820    0.95300    1.000
    N118     N        0.48420    0.88350    0.92880    1.000
    O70      O        0.53340    0.98590    0.87740    1.000
    O71      O        0.52440    0.96720    0.82200    1.000
    C211     C        0.45630    0.85750    0.98110    1.000
    H164     H        0.46900    0.84030    0.01540    1.000
    C212     C        0.43810    0.82520    0.96090    1.000
    H165     H        0.44450    0.79460    0.97770    1.000
    N119     N        0.59460    0.91690    0.80830    1.000
    O72      O        0.48980    0.81470    0.80470    1.000
    C213     C        0.64360    0.96470    0.78630    1.000
    H166     H        0.67350    0.99390    0.81480    1.000
    N120     N        0.56860    0.82730    0.93940    1.000
    C214     C        0.57450    0.81350    0.00580    1.000
    C215     C        0.58470    0.81860    0.12510    1.000
    H167     H        0.58770    0.83720    0.16810    1.000
    C216     C        0.58050    0.84590    0.06650    1.000
    H168     H        0.58160    0.88280    0.06680    1.000
    Cl48     Cl       0.59260    0.87260    0.19750    1.000
    C217     C        0.38350    0.38350    0.50000    1.000
    H169     H        0.41990    0.41990    0.50000    1.000
    C218     C        0.61650    0.00000    0.50000    1.000
    H170     H        0.58010    0.00000    0.50000    1.000
    C219     C        0.00000    0.61650    0.50000    1.000
    H171     H        0.00000    0.58010    0.50000    1.000
    C220     C        0.61650    0.61650    0.00000    1.000
    H172     H        0.58010    0.58010    0.00000    1.000
    C221     C        0.38350    0.00000    0.00000    1.000
    H173     H        0.41990    0.00000    0.00000    1.000
    C222     C        0.00000    0.38350    0.00000    1.000
    H174     H        0.00000    0.41990    0.00000    1.000
    C223     C        0.61650    0.61650    0.50000    1.000
    H175     H        0.58010    0.58010    0.50000    1.000
    C224     C        0.38350    0.00000    0.50000    1.000
    H176     H        0.41990    0.00000    0.50000    1.000
    C225     C        0.00000    0.38350    0.50000    1.000
    H177     H        0.00000    0.41990    0.50000    1.000
    C226     C        0.38350    0.38350    0.00000    1.000
    H178     H        0.41990    0.41990    0.00000    1.000
    C227     C        0.61650    0.00000    0.00000    1.000
    H179     H        0.58010    0.00000    0.00000    1.000
    C228     C        0.00000    0.61650    0.00000    1.000
    H180     H        0.00000    0.58010    0.00000    1.000
    C229     C        0.54780    0.45220    0.40830    1.000
    N121     N        0.52880    0.47120    0.33300    1.000
    N122     N        0.51890    0.48110    0.38100    1.000
    C230     C        0.54780    0.09560    0.40830    1.000
    N123     N        0.52880    0.05760    0.33300    1.000
    N124     N        0.51890    0.03780    0.38100    1.000
    C231     C        0.90440    0.45220    0.40830    1.000
    N125     N        0.94240    0.47120    0.33300    1.000
    N126     N        0.96220    0.48110    0.38100    1.000
    C232     C        0.45220    0.54780    0.90830    1.000
    N127     N        0.47120    0.52880    0.83300    1.000
    N128     N        0.48110    0.51890    0.88100    1.000
    C233     C        0.45220    0.90440    0.90830    1.000
    N129     N        0.47120    0.94240    0.83300    1.000
    N130     N        0.48110    0.96220    0.88100    1.000
    C234     C        0.09560    0.54780    0.90830    1.000
    N131     N        0.05760    0.52880    0.83300    1.000
    N132     N        0.03780    0.51890    0.88100    1.000
    C235     C        0.45220    0.54780    0.59170    1.000
    N133     N        0.47120    0.52880    0.66700    1.000
    N134     N        0.48110    0.51890    0.61900    1.000
    C236     C        0.09560    0.54780    0.59170    1.000
    N135     N        0.05760    0.52880    0.66700    1.000
    N136     N        0.03780    0.51890    0.61900    1.000
    C237     C        0.45220    0.90440    0.59170    1.000
    N137     N        0.47120    0.94240    0.66700    1.000
    N138     N        0.48110    0.96220    0.61900    1.000
    C238     C        0.54780    0.45220    0.09170    1.000
    N139     N        0.52880    0.47120    0.16700    1.000
    N140     N        0.51890    0.48110    0.11900    1.000
    C239     C        0.90440    0.45220    0.09170    1.000
    N141     N        0.94240    0.47120    0.16700    1.000
    N142     N        0.96220    0.48110    0.11900    1.000
    C240     C        0.54780    0.09560    0.09170    1.000
    N143     N        0.52880    0.05760    0.16700    1.000
    N144     N        0.51890    0.03780    0.11900    1.000
    C241     C        0.43210    0.32290    0.25000    1.000
    N145     N        0.48740    0.32400    0.25000    1.000
    C242     C        0.67710    0.10920    0.25000    1.000
    N146     N        0.67600    0.16340    0.25000    1.000
    C243     C        0.89080    0.56790    0.25000    1.000
    N147     N        0.83660    0.51260    0.25000    1.000
    C244     C        0.56790    0.67710    0.75000    1.000
    N148     N        0.51260    0.67600    0.75000    1.000
    C245     C        0.32290    0.89080    0.75000    1.000
    N149     N        0.32400    0.83660    0.75000    1.000
    C246     C        0.10920    0.43210    0.75000    1.000
    N150     N        0.16340    0.48740    0.75000    1.000
    C247     C        0.32290    0.43210    0.75000    1.000
    N151     N        0.32400    0.48740    0.75000    1.000
    C248     C        0.10920    0.67710    0.75000    1.000
    N152     N        0.16340    0.67600    0.75000    1.000
    C249     C        0.56790    0.89080    0.75000    1.000
    N153     N        0.51260    0.83660    0.75000    1.000
    C250     C        0.67710    0.56790    0.25000    1.000
    N154     N        0.67600    0.51260    0.25000    1.000
    C251     C        0.89080    0.32290    0.25000    1.000
    N155     N        0.83660    0.32400    0.25000    1.000
    C252     C        0.43210    0.10920    0.25000    1.000
    N156     N        0.48740    0.16340    0.25000    1.000
    C253     C        0.43500    0.21750    0.40380    1.000
    H181     H        0.43980    0.21990    0.35520    1.000
    C254     C        0.78250    0.21750    0.40380    1.000
    H182     H        0.78010    0.21990    0.35520    1.000
    C255     C        0.78250    0.56500    0.40380    1.000
    H183     H        0.78010    0.56020    0.35520    1.000
    C256     C        0.56500    0.78250    0.90380    1.000
    H184     H        0.56020    0.78010    0.85520    1.000
    C257     C        0.21750    0.78250    0.90380    1.000
    H185     H        0.21990    0.78010    0.85520    1.000
    C258     C        0.21750    0.43500    0.90380    1.000
    H186     H        0.21990    0.43980    0.85520    1.000
    C259     C        0.21750    0.43500    0.59620    1.000
    H187     H        0.21990    0.43980    0.64480    1.000
    C260     C        0.21750    0.78250    0.59620    1.000
    H188     H        0.21990    0.78010    0.64480    1.000
    C261     C        0.56500    0.78250    0.59620    1.000
    H189     H        0.56020    0.78010    0.64480    1.000
    C262     C        0.78250    0.56500    0.09620    1.000
    H190     H        0.78010    0.56020    0.14480    1.000
    C263     C        0.78250    0.21750    0.09620    1.000
    H191     H        0.78010    0.21990    0.14480    1.000
    C264     C        0.43500    0.21750    0.09620    1.000
    H192     H        0.43980    0.21990    0.14480    1.000
