# CIF file generated by openbabel 3.1.0, see https://openbabel.org
data_I
_chemical_name_common 'image0'
_cell_length_a 11.2073
_cell_length_b 28.6467
_cell_length_c 21.996
_cell_angle_alpha 90
_cell_angle_beta 117.764
_cell_angle_gamma 90
_space_group_name_H-M_alt 'P 1'
_space_group_name_Hall 'P 1'
loop_
    _symmetry_equiv_pos_as_xyz
    x,y,z
loop_
    _atom_site_label
    _atom_site_type_symbol
    _atom_site_fract_x
    _atom_site_fract_y
    _atom_site_fract_z
    _atom_site_occupancy
    Cu1      Cu       0.49716    0.25132    0.29910    1.000
    Cu2      Cu       0.50564    0.36738    0.28022    1.000
    O1       O        0.10830    0.05860    0.02290    1.000
    O2       O        0.96010    0.10920    0.02460    1.000
    O3       O        0.17790    0.26370    0.05680    1.000
    O4       O        0.39370    0.26738    0.18780    1.000
    O5       O        0.41030    0.34457    0.17460    1.000
    O6       O        0.54090    0.31304    0.33870    1.000
    N1       N        0.00790    0.99810    0.09180    1.000
    N2       N        0.00040    0.99630    0.41010    1.000
    N3       N        0.48130    0.18090    0.28480    1.000
    N4       N        0.50640    0.93690    0.24090    1.000
    N5       N        0.31880    0.25050    0.30380    1.000
    N6       N        0.68380    0.24640    0.30470    1.000
    N7       N        0.32390    0.37330    0.28120    1.000
    N8       N        0.69170    0.36660    0.28300    1.000
    C1       C        0.06870    0.09860    0.02540    1.000
    C2       C        0.16530    0.13900    0.03410    1.000
    C3       C        0.28880    0.12960    0.03180    1.000
    H1       H        0.31040    0.09920    0.02580    1.000
    C4       C        0.37670    0.16630    0.03850    1.000
    C5       C        0.33870    0.21140    0.04760    1.000
    H2       H        0.39670    0.23600    0.05290    1.000
    C6       C        0.22380    0.22050    0.04910    1.000
    C7       C        0.13490    0.18410    0.04190    1.000
    H3       H        0.05410    0.19060    0.04240    1.000
    C8       C        0.50800    0.15600    0.03770    1.000
    H4       H        0.57940    0.15430    0.08410    1.000
    H5       H        0.52710    0.18040    0.01360    1.000
    H6       H        0.50110    0.12680    0.01500    1.000
    C9       C        0.27010    0.30260    0.07550    1.000
    H7       H        0.21910    0.33150    0.06190    1.000
    H8       H        0.32270    0.30030    0.05090    1.000
    C10      C        0.36660    0.30380    0.15380    1.000
    C11      C        0.89530    0.98770    0.09660    1.000
    H9       H        0.81680    0.98030    0.05700    1.000
    C12      C        0.89370    0.98780    0.15860    1.000
    H10      H        0.81380    0.98120    0.16000    1.000
    C13      C        0.00810    0.99740    0.21860    1.000
    C14      C        0.12580    0.00770    0.21400    1.000
    H11      H        0.20590    0.01430    0.25330    1.000
    C15      C        0.12080    0.00800    0.15010    1.000
    H12      H        0.19880    0.01530    0.14710    1.000
    C16      C        0.89250    0.00940    0.35220    1.000
    H13      H        0.81420    0.01790    0.35410    1.000
    C17      C        0.89370    0.01070    0.28970    1.000
    H14      H        0.81820    0.02120    0.25070    1.000
    C18      C        0.00610    0.99670    0.28510    1.000
    C19      C        0.11880    0.98130    0.34560    1.000
    H15      H        0.19730    0.97170    0.34480    1.000
    C20      C        0.10900    0.98100    0.40620    1.000
    H16      H        0.18150    0.96970    0.44580    1.000
    C21      C        0.41710    0.16150    0.22280    1.000
    H17      H        0.37030    0.18090    0.18510    1.000
    C22      C        0.41660    0.11290    0.21160    1.000
    H18      H        0.36930    0.10020    0.16780    1.000
    C23      C        0.49040    0.08450    0.26910    1.000
    C24      C        0.55330    0.10430    0.33340    1.000
    H19      H        0.59940    0.08590    0.37230    1.000
    C25      C        0.54630    0.15320    0.33920    1.000
    H20      H        0.58860    0.16660    0.38270    1.000
    C26      C        0.50550    0.95430    0.29630    1.000
    H21      H        0.50790    0.93360    0.32950    1.000
    C27      C        0.50100    0.00150    0.30740    1.000
    H22      H        0.50220    0.01190    0.34770    1.000
    C28      C        0.49490    0.03330    0.25920    1.000
    C29      C        0.49790    0.01580    0.20150    1.000
    H23      H        0.49560    0.03600    0.16790    1.000
    C30      C        0.50430    0.96740    0.19340    1.000
    H24      H        0.50720    0.95600    0.15450    1.000
    C31      C        0.19960    0.25330    0.24610    1.000
    H25      H        0.20080    0.25610    0.20420    1.000
    C32      C        0.07730    0.25230    0.24560    1.000
    H26      H        0.99880    0.25520    0.20410    1.000
    C33      C        0.06920    0.24710    0.30490    1.000
    C34      C        0.19180    0.24360    0.36640    1.000
    H27      H        0.19250    0.23980    0.40860    1.000
    C35      C        0.31250    0.24600    0.36190    1.000
    H28      H        0.39320    0.24440    0.40250    1.000
    C36      C        0.69360    0.23860    0.24550    1.000
    H29      H        0.61580    0.23360    0.20430    1.000
    C37      C        0.81580    0.23810    0.24670    1.000
    H30      H        0.82000    0.23270    0.20600    1.000
    C38      C        0.93310    0.24550    0.30590    1.000
    C39      C        0.92390    0.25370    0.36550    1.000
    H31      H        0.00110    0.25970    0.40650    1.000
    C40      C        0.79990    0.25300    0.36360    1.000
    H32      H        0.79540    0.25730    0.40440    1.000
    C41      C        0.21030    0.38060    0.22350    1.000
    H33      H        0.21560    0.38600    0.18310    1.000
    C42      C        0.08420    0.38060    0.22100    1.000
    H34      H        0.00700    0.38540    0.17950    1.000
    C43      C        0.07410    0.37350    0.28120    1.000
    C44      C        0.19510    0.36710    0.34220    1.000
    H35      H        0.19380    0.36320    0.38380    1.000
    C45      C        0.31680    0.36680    0.33960    1.000
    H36      H        0.39620    0.36190    0.38000    1.000
    C46      C        0.70150    0.35810    0.22520    1.000
    H37      H        0.62350    0.35080    0.18520    1.000
    C47      C        0.82440    0.35970    0.22300    1.000
    H38      H        0.82860    0.35260    0.18280    1.000
    C48      C        0.94070    0.37220    0.28260    1.000
    C49      C        0.92870    0.38140    0.34070    1.000
    H39      H        0.00450    0.38880    0.38160    1.000
    C50      C        0.80170    0.37940    0.33800    1.000
    H40      H        0.79460    0.38760    0.37710    1.000
    Cu3      Cu       0.50284    0.75132    0.20090    1.000
    Cu4      Cu       0.49436    0.86738    0.21978    1.000
    O7       O        0.89170    0.55860    0.47710    1.000
    O8       O        0.03990    0.60920    0.47540    1.000
    O9       O        0.82210    0.76370    0.44320    1.000
    O10      O        0.60630    0.76738    0.31220    1.000
    O11      O        0.58970    0.84457    0.32540    1.000
    O12      O        0.45910    0.81304    0.16130    1.000
    N9       N        0.99210    0.49810    0.40820    1.000
    N10      N        0.99960    0.49630    0.08990    1.000
    N11      N        0.51870    0.68090    0.21520    1.000
    N12      N        0.49360    0.43690    0.25910    1.000
    N13      N        0.68120    0.75050    0.19620    1.000
    N14      N        0.31620    0.74640    0.19530    1.000
    N15      N        0.67610    0.87330    0.21880    1.000
    N16      N        0.30830    0.86660    0.21700    1.000
    C51      C        0.93130    0.59860    0.47460    1.000
    C52      C        0.83470    0.63900    0.46590    1.000
    C53      C        0.71120    0.62960    0.46820    1.000
    H41      H        0.68960    0.59920    0.47420    1.000
    C54      C        0.62330    0.66630    0.46150    1.000
    C55      C        0.66130    0.71140    0.45240    1.000
    H42      H        0.60330    0.73600    0.44710    1.000
    C56      C        0.77620    0.72050    0.45090    1.000
    C57      C        0.86510    0.68410    0.45810    1.000
    H43      H        0.94590    0.69060    0.45760    1.000
    C58      C        0.49200    0.65600    0.46230    1.000
    H44      H        0.42060    0.65430    0.41590    1.000
    H45      H        0.47290    0.68040    0.48640    1.000
    H46      H        0.49890    0.62680    0.48500    1.000
    C59      C        0.72990    0.80260    0.42450    1.000
    H47      H        0.78090    0.83150    0.43810    1.000
    H48      H        0.67730    0.80030    0.44910    1.000
    C60      C        0.63340    0.80380    0.34620    1.000
    C61      C        0.10470    0.48770    0.40340    1.000
    H49      H        0.18320    0.48030    0.44300    1.000
    C62      C        0.10630    0.48780    0.34140    1.000
    H50      H        0.18620    0.48120    0.34000    1.000
    C63      C        0.99190    0.49740    0.28140    1.000
    C64      C        0.87420    0.50770    0.28600    1.000
    H51      H        0.79410    0.51430    0.24670    1.000
    C65      C        0.87920    0.50800    0.34990    1.000
    H52      H        0.80120    0.51530    0.35290    1.000
    C66      C        0.10750    0.50940    0.14780    1.000
    H53      H        0.18580    0.51790    0.14590    1.000
    C67      C        0.10630    0.51070    0.21030    1.000
    H54      H        0.18180    0.52120    0.24930    1.000
    C68      C        0.99390    0.49670    0.21490    1.000
    C69      C        0.88120    0.48130    0.15440    1.000
    H55      H        0.80270    0.47170    0.15520    1.000
    C70      C        0.89100    0.48100    0.09380    1.000
    H56      H        0.81850    0.46970    0.05420    1.000
    C71      C        0.58290    0.66150    0.27720    1.000
    H57      H        0.62970    0.68090    0.31490    1.000
    C72      C        0.58340    0.61290    0.28840    1.000
    H58      H        0.63070    0.60020    0.33220    1.000
    C73      C        0.50960    0.58450    0.23090    1.000
    C74      C        0.44670    0.60430    0.16660    1.000
    H59      H        0.40060    0.58590    0.12770    1.000
    C75      C        0.45370    0.65320    0.16080    1.000
    H60      H        0.41140    0.66660    0.11730    1.000
    C76      C        0.49450    0.45430    0.20370    1.000
    H61      H        0.49210    0.43360    0.17050    1.000
    C77      C        0.49900    0.50150    0.19260    1.000
    H62      H        0.49780    0.51190    0.15230    1.000
    C78      C        0.50510    0.53330    0.24080    1.000
    C79      C        0.50210    0.51580    0.29850    1.000
    H63      H        0.50440    0.53600    0.33210    1.000
    C80      C        0.49570    0.46740    0.30660    1.000
    H64      H        0.49280    0.45600    0.34550    1.000
    C81      C        0.80040    0.75330    0.25390    1.000
    H65      H        0.79920    0.75610    0.29580    1.000
    C82      C        0.92270    0.75230    0.25440    1.000
    H66      H        0.00120    0.75520    0.29590    1.000
    C83      C        0.93080    0.74710    0.19510    1.000
    C84      C        0.80820    0.74360    0.13360    1.000
    H67      H        0.80750    0.73980    0.09140    1.000
    C85      C        0.68750    0.74600    0.13810    1.000
    H68      H        0.60680    0.74440    0.09750    1.000
    C86      C        0.30640    0.73860    0.25450    1.000
    H69      H        0.38420    0.73360    0.29570    1.000
    C87      C        0.18420    0.73810    0.25330    1.000
    H70      H        0.18000    0.73270    0.29400    1.000
    C88      C        0.06690    0.74550    0.19410    1.000
    C89      C        0.07610    0.75370    0.13450    1.000
    H71      H        0.99890    0.75970    0.09350    1.000
    C90      C        0.20010    0.75300    0.13640    1.000
    H72      H        0.20460    0.75730    0.09560    1.000
    C91      C        0.78970    0.88060    0.27650    1.000
    H73      H        0.78440    0.88600    0.31690    1.000
    C92      C        0.91580    0.88060    0.27900    1.000
    H74      H        0.99300    0.88540    0.32050    1.000
    C93      C        0.92590    0.87350    0.21880    1.000
    C94      C        0.80490    0.86710    0.15780    1.000
    H75      H        0.80620    0.86320    0.11620    1.000
    C95      C        0.68320    0.86680    0.16040    1.000
    H76      H        0.60380    0.86190    0.12000    1.000
    C96      C        0.29850    0.85810    0.27480    1.000
    H77      H        0.37650    0.85080    0.31480    1.000
    C97      C        0.17560    0.85970    0.27700    1.000
    H78      H        0.17140    0.85260    0.31720    1.000
    C98      C        0.05930    0.87220    0.21740    1.000
    C99      C        0.07130    0.88140    0.15930    1.000
    H79      H        0.99550    0.88880    0.11840    1.000
    C100     C        0.19830    0.87940    0.16200    1.000
    H80      H        0.20540    0.88760    0.12290    1.000
    Cu5      Cu       0.50284    0.74868    0.70090    1.000
    Cu6      Cu       0.49436    0.63262    0.71978    1.000
    O13      O        0.89170    0.94140    0.97710    1.000
    O14      O        0.03990    0.89080    0.97540    1.000
    O15      O        0.82210    0.73630    0.94320    1.000
    O16      O        0.60630    0.73262    0.81220    1.000
    O17      O        0.58970    0.65543    0.82540    1.000
    O18      O        0.45910    0.68696    0.66130    1.000
    N17      N        0.99210    0.00190    0.90820    1.000
    N18      N        0.99960    0.00370    0.58990    1.000
    N19      N        0.51870    0.81910    0.71520    1.000
    N20      N        0.49360    0.06310    0.75910    1.000
    N21      N        0.68120    0.74950    0.69620    1.000
    N22      N        0.31620    0.75360    0.69530    1.000
    N23      N        0.67610    0.62670    0.71880    1.000
    N24      N        0.30830    0.63340    0.71700    1.000
    C101     C        0.93130    0.90140    0.97460    1.000
    C102     C        0.83470    0.86100    0.96590    1.000
    C103     C        0.71120    0.87040    0.96820    1.000
    H81      H        0.68960    0.90080    0.97420    1.000
    C104     C        0.62330    0.83370    0.96150    1.000
    C105     C        0.66130    0.78860    0.95240    1.000
    H82      H        0.60330    0.76400    0.94710    1.000
    C106     C        0.77620    0.77950    0.95090    1.000
    C107     C        0.86510    0.81590    0.95810    1.000
    H83      H        0.94590    0.80940    0.95760    1.000
    C108     C        0.49200    0.84400    0.96230    1.000
    H84      H        0.42060    0.84570    0.91590    1.000
    H85      H        0.47290    0.81960    0.98640    1.000
    H86      H        0.49890    0.87320    0.98500    1.000
    C109     C        0.72990    0.69740    0.92450    1.000
    H87      H        0.78090    0.66850    0.93810    1.000
    H88      H        0.67730    0.69970    0.94910    1.000
    C110     C        0.63340    0.69620    0.84620    1.000
    C111     C        0.10470    0.01230    0.90340    1.000
    H89      H        0.18320    0.01970    0.94300    1.000
    C112     C        0.10630    0.01220    0.84140    1.000
    H90      H        0.18620    0.01880    0.84000    1.000
    C113     C        0.99190    0.00260    0.78140    1.000
    C114     C        0.87420    0.99230    0.78600    1.000
    H91      H        0.79410    0.98570    0.74670    1.000
    C115     C        0.87920    0.99200    0.84990    1.000
    H92      H        0.80120    0.98470    0.85290    1.000
    C116     C        0.10750    0.99060    0.64780    1.000
    H93      H        0.18580    0.98210    0.64590    1.000
    C117     C        0.10630    0.98930    0.71030    1.000
    H94      H        0.18180    0.97880    0.74930    1.000
    C118     C        0.99390    0.00330    0.71490    1.000
    C119     C        0.88120    0.01870    0.65440    1.000
    H95      H        0.80270    0.02830    0.65520    1.000
    C120     C        0.89100    0.01900    0.59380    1.000
    H96      H        0.81850    0.03030    0.55420    1.000
    C121     C        0.58290    0.83850    0.77720    1.000
    H97      H        0.62970    0.81910    0.81490    1.000
    C122     C        0.58340    0.88710    0.78840    1.000
    H98      H        0.63070    0.89980    0.83220    1.000
    C123     C        0.50960    0.91550    0.73090    1.000
    C124     C        0.44670    0.89570    0.66660    1.000
    H99      H        0.40060    0.91410    0.62770    1.000
    C125     C        0.45370    0.84680    0.66080    1.000
    H100     H        0.41140    0.83340    0.61730    1.000
    C126     C        0.49450    0.04570    0.70370    1.000
    H101     H        0.49210    0.06640    0.67050    1.000
    C127     C        0.49900    0.99850    0.69260    1.000
    H102     H        0.49780    0.98810    0.65230    1.000
    C128     C        0.50510    0.96670    0.74080    1.000
    C129     C        0.50210    0.98420    0.79850    1.000
    H103     H        0.50440    0.96400    0.83210    1.000
    C130     C        0.49570    0.03260    0.80660    1.000
    H104     H        0.49280    0.04400    0.84550    1.000
    C131     C        0.80040    0.74670    0.75390    1.000
    H105     H        0.79920    0.74390    0.79580    1.000
    C132     C        0.92270    0.74770    0.75440    1.000
    H106     H        0.00120    0.74480    0.79590    1.000
    C133     C        0.93080    0.75290    0.69510    1.000
    C134     C        0.80820    0.75640    0.63360    1.000
    H107     H        0.80750    0.76020    0.59140    1.000
    C135     C        0.68750    0.75400    0.63810    1.000
    H108     H        0.60680    0.75560    0.59750    1.000
    C136     C        0.30640    0.76140    0.75450    1.000
    H109     H        0.38420    0.76640    0.79570    1.000
    C137     C        0.18420    0.76190    0.75330    1.000
    H110     H        0.18000    0.76730    0.79400    1.000
    C138     C        0.06690    0.75450    0.69410    1.000
    C139     C        0.07610    0.74630    0.63450    1.000
    H111     H        0.99890    0.74030    0.59350    1.000
    C140     C        0.20010    0.74700    0.63640    1.000
    H112     H        0.20460    0.74270    0.59560    1.000
    C141     C        0.78970    0.61940    0.77650    1.000
    H113     H        0.78440    0.61400    0.81690    1.000
    C142     C        0.91580    0.61940    0.77900    1.000
    H114     H        0.99300    0.61460    0.82050    1.000
    C143     C        0.92590    0.62650    0.71880    1.000
    C144     C        0.80490    0.63290    0.65780    1.000
    H115     H        0.80620    0.63680    0.61620    1.000
    C145     C        0.68320    0.63320    0.66040    1.000
    H116     H        0.60380    0.63810    0.62000    1.000
    C146     C        0.29850    0.64190    0.77480    1.000
    H117     H        0.37650    0.64920    0.81480    1.000
    C147     C        0.17560    0.64030    0.77700    1.000
    H118     H        0.17140    0.64740    0.81720    1.000
    C148     C        0.05930    0.62780    0.71740    1.000
    C149     C        0.07130    0.61860    0.65930    1.000
    H119     H        0.99550    0.61120    0.61840    1.000
    C150     C        0.19830    0.62060    0.66200    1.000
    H120     H        0.20540    0.61240    0.62290    1.000
    Cu7      Cu       0.49716    0.24868    0.79910    1.000
    Cu8      Cu       0.50564    0.13262    0.78022    1.000
    O19      O        0.10830    0.44140    0.52290    1.000
    O20      O        0.96010    0.39080    0.52460    1.000
    O21      O        0.17790    0.23630    0.55680    1.000
    O22      O        0.39370    0.23262    0.68780    1.000
    O23      O        0.41030    0.15543    0.67460    1.000
    O24      O        0.54090    0.18696    0.83870    1.000
    N25      N        0.00790    0.50190    0.59180    1.000
    N26      N        0.00040    0.50370    0.91010    1.000
    N27      N        0.48130    0.31910    0.78480    1.000
    N28      N        0.50640    0.56310    0.74090    1.000
    N29      N        0.31880    0.24950    0.80380    1.000
    N30      N        0.68380    0.25360    0.80470    1.000
    N31      N        0.32390    0.12670    0.78120    1.000
    N32      N        0.69170    0.13340    0.78300    1.000
    C151     C        0.06870    0.40140    0.52540    1.000
    C152     C        0.16530    0.36100    0.53410    1.000
    C153     C        0.28880    0.37040    0.53180    1.000
    H121     H        0.31040    0.40080    0.52580    1.000
    C154     C        0.37670    0.33370    0.53850    1.000
    C155     C        0.33870    0.28860    0.54760    1.000
    H122     H        0.39670    0.26400    0.55290    1.000
    C156     C        0.22380    0.27950    0.54910    1.000
    C157     C        0.13490    0.31590    0.54190    1.000
    H123     H        0.05410    0.30940    0.54240    1.000
    C158     C        0.50800    0.34400    0.53770    1.000
    H124     H        0.57940    0.34570    0.58410    1.000
    H125     H        0.52710    0.31960    0.51360    1.000
    H126     H        0.50110    0.37320    0.51500    1.000
    C159     C        0.27010    0.19740    0.57550    1.000
    H127     H        0.21910    0.16850    0.56190    1.000
    H128     H        0.32270    0.19970    0.55090    1.000
    C160     C        0.36660    0.19620    0.65380    1.000
    C161     C        0.89530    0.51230    0.59660    1.000
    H129     H        0.81680    0.51970    0.55700    1.000
    C162     C        0.89370    0.51220    0.65860    1.000
    H130     H        0.81380    0.51880    0.66000    1.000
    C163     C        0.00810    0.50260    0.71860    1.000
    C164     C        0.12580    0.49230    0.71400    1.000
    H131     H        0.20590    0.48570    0.75330    1.000
    C165     C        0.12080    0.49200    0.65010    1.000
    H132     H        0.19880    0.48470    0.64710    1.000
    C166     C        0.89250    0.49060    0.85220    1.000
    H133     H        0.81420    0.48210    0.85410    1.000
    C167     C        0.89370    0.48930    0.78970    1.000
    H134     H        0.81820    0.47880    0.75070    1.000
    C168     C        0.00610    0.50330    0.78510    1.000
    C169     C        0.11880    0.51870    0.84560    1.000
    H135     H        0.19730    0.52830    0.84480    1.000
    C170     C        0.10900    0.51900    0.90620    1.000
    H136     H        0.18150    0.53030    0.94580    1.000
    C171     C        0.41710    0.33850    0.72280    1.000
    H137     H        0.37030    0.31910    0.68510    1.000
    C172     C        0.41660    0.38710    0.71160    1.000
    H138     H        0.36930    0.39980    0.66780    1.000
    C173     C        0.49040    0.41550    0.76910    1.000
    C174     C        0.55330    0.39570    0.83340    1.000
    H139     H        0.59940    0.41410    0.87230    1.000
    C175     C        0.54630    0.34680    0.83920    1.000
    H140     H        0.58860    0.33340    0.88270    1.000
    C176     C        0.50550    0.54570    0.79630    1.000
    H141     H        0.50790    0.56640    0.82950    1.000
    C177     C        0.50100    0.49850    0.80740    1.000
    H142     H        0.50220    0.48810    0.84770    1.000
    C178     C        0.49490    0.46670    0.75920    1.000
    C179     C        0.49790    0.48420    0.70150    1.000
    H143     H        0.49560    0.46400    0.66790    1.000
    C180     C        0.50430    0.53260    0.69340    1.000
    H144     H        0.50720    0.54400    0.65450    1.000
    C181     C        0.19960    0.24670    0.74610    1.000
    H145     H        0.20080    0.24390    0.70420    1.000
    C182     C        0.07730    0.24770    0.74560    1.000
    H146     H        0.99880    0.24480    0.70410    1.000
    C183     C        0.06920    0.25290    0.80490    1.000
    C184     C        0.19180    0.25640    0.86640    1.000
    H147     H        0.19250    0.26020    0.90860    1.000
    C185     C        0.31250    0.25400    0.86190    1.000
    H148     H        0.39320    0.25560    0.90250    1.000
    C186     C        0.69360    0.26140    0.74550    1.000
    H149     H        0.61580    0.26640    0.70430    1.000
    C187     C        0.81580    0.26190    0.74670    1.000
    H150     H        0.82000    0.26730    0.70600    1.000
    C188     C        0.93310    0.25450    0.80590    1.000
    C189     C        0.92390    0.24630    0.86550    1.000
    H151     H        0.00110    0.24030    0.90650    1.000
    C190     C        0.79990    0.24700    0.86360    1.000
    H152     H        0.79540    0.24270    0.90440    1.000
    C191     C        0.21030    0.11940    0.72350    1.000
    H153     H        0.21560    0.11400    0.68310    1.000
    C192     C        0.08420    0.11940    0.72100    1.000
    H154     H        0.00700    0.11460    0.67950    1.000
    C193     C        0.07410    0.12650    0.78120    1.000
    C194     C        0.19510    0.13290    0.84220    1.000
    H155     H        0.19380    0.13680    0.88380    1.000
    C195     C        0.31680    0.13320    0.83960    1.000
    H156     H        0.39620    0.13810    0.88000    1.000
    C196     C        0.70150    0.14190    0.72520    1.000
    H157     H        0.62350    0.14920    0.68520    1.000
    C197     C        0.82440    0.14030    0.72300    1.000
    H158     H        0.82860    0.14740    0.68280    1.000
    C198     C        0.94070    0.12780    0.78260    1.000
    C199     C        0.92870    0.11860    0.84070    1.000
    H159     H        0.00450    0.11120    0.88160    1.000
    C200     C        0.80170    0.12060    0.83800    1.000
    H160     H        0.79460    0.11240    0.87710    1.000
    Cu9      Cu       0.00000    0.00000    0.00000    1.000
    Cu10     Cu       0.00000    0.50000    0.50000    1.000
    Cu11     Cu       0.00000    0.00000    0.50000    1.000
    Cu12     Cu       0.00000    0.50000    0.00000    1.000
