# CIF file generated by openbabel 3.1.0, see https://openbabel.org
data_I
_chemical_name_common 'image0'
_cell_length_a 15.825
_cell_length_b 23.261
_cell_length_c 23.883
_cell_angle_alpha 90
_cell_angle_beta 91.142
_cell_angle_gamma 90
_space_group_name_H-M_alt 'P 1'
_space_group_name_Hall 'P 1'
loop_
    _symmetry_equiv_pos_as_xyz
    x,y,z
loop_
    _atom_site_label
    _atom_site_type_symbol
    _atom_site_fract_x
    _atom_site_fract_y
    _atom_site_fract_z
    _atom_site_occupancy
    Yb1      Yb       0.24839    0.78724    0.98956    1.000
    O1       O        0.13130    0.81570    0.03630    1.000
    O2       O        0.15700    0.70750    0.00570    1.000
    O3       O        0.26100    0.75610    0.08110    1.000
    O4       O        0.23250    0.76620    0.89600    1.000
    O5       O        0.36260    0.82240    0.94300    1.000
    O6       O        0.34030    0.71270    0.96320    1.000
    O7       O        0.18330    0.87390    0.95300    1.000
    O8       O        0.31530    0.86670    0.03640    1.000
    Yb2      Yb       0.15837    0.81523    0.13308    1.000
    Yb3      Yb       0.02627    0.74910    0.02218    1.000
    H1       H        0.11270    0.85380    0.02380    1.000
    Yb4      Yb       0.19897    0.66708    0.09086    1.000
    H2       H        0.15550    0.67970    0.97480    1.000
    H3       H        0.31880    0.75810    0.09640    1.000
    Yb5      Yb       0.33102    0.83276    0.84953    1.000
    Yb6      Yb       0.30024    0.67874    0.87509    1.000
    H4       H        0.17410    0.76870    0.88180    1.000
    Yb7      Yb       0.46979    0.75718    0.94809    1.000
    H5       H        0.38080    0.85920    0.95920    1.000
    H6       H        0.34430    0.68200    0.99120    1.000
    C1       C        0.19780    0.91140    0.91540    1.000
    C2       C        0.29720    0.89960    0.07470    1.000
    O9       O        0.09100    0.73120    0.10850    1.000
    O10      O        0.04220    0.87040    0.12210    1.000
    O11      O        0.23470    0.76940    0.19780    1.000
    O12      O        0.24430    0.88790    0.11350    1.000
    O13      O        0.96240    0.83050    0.05590    1.000
    O14      O        0.03870    0.77580    0.92650    1.000
    O15      O        0.91230    0.76210    0.95890    1.000
    O16      O        0.26680    0.67930    0.17610    1.000
    O17      O        0.09960    0.59780    0.05970    1.000
    O18      O        0.10190    0.61620    0.14850    1.000
    O19      O        0.31340    0.62520    0.04370    1.000
    O20      O        0.26710    0.57780    0.11310    1.000
    O21      O        0.40260    0.74830    0.86190    1.000
    O22      O        0.24770    0.79410    0.78140    1.000
    O23      O        0.44700    0.89040    0.86840    1.000
    O24      O        0.24360    0.90230    0.87390    1.000
    O25      O        0.21890    0.70220    0.79810    1.000
    O26      O        0.18230    0.63380    0.91360    1.000
    O27      O        0.23930    0.58860    0.84510    1.000
    O28      O        0.40210    0.61690    0.90390    1.000
    O29      O        0.53240    0.84470    0.92980    1.000
    O30      O        0.49960    0.66270    0.95170    1.000
    O31      O        0.58110    0.75560    0.01550    1.000
    O32      O        0.45490    0.76860    0.04650    1.000
    C3       C        0.15710    0.96930    0.91800    1.000
    C4       C        0.33930    0.95800    0.08020    1.000
    H7       H        0.05180    0.71760    0.13680    1.000
    C5       C        0.27270    0.72330    0.20610    1.000
    C6       C        0.07580    0.58600    0.10830    1.000
    C7       C        0.31880    0.58300    0.07170    1.000
    H8       H        0.44110    0.73940    0.83140    1.000
    C8       C        0.20940    0.74520    0.77100    1.000
    C9       C        0.07130    0.97210    0.90440    1.000
    C10      C        0.20160    0.01930    0.93060    1.000
    C11      C        0.42580    0.95720    0.07090    1.000
    C12      C        0.29980    0.00900    0.09470    1.000
    C13      C        0.32950    0.72280    0.25780    1.000
    C14      C        0.01200    0.53760    0.11570    1.000
    C15      C        0.37440    0.53280    0.06440    1.000
    C16      C        0.15310    0.74540    0.71740    1.000
    C17      C        0.03010    0.02480    0.90350    1.000
    H9       H        0.04150    0.93860    0.89600    1.000
    C18      C        0.16040    0.07210    0.92970    1.000
    C19      C        0.28730    0.01660    0.94420    1.000
    C20      C        0.47260    0.00750    0.07620    1.000
    H10      H        0.45230    0.92300    0.06120    1.000
    C21      C        0.21330    0.00980    0.10400    1.000
    C22      C        0.34660    0.05940    0.09990    1.000
    C23      C        0.30320    0.75630    0.30220    1.000
    C24      C        0.40520    0.68900    0.26420    1.000
    C25      C        0.97230    0.51640    0.06860    1.000
    C26      C        0.99380    0.51370    0.16750    1.000
    C27      C        0.36730    0.49610    0.01770    1.000
    C28      C        0.43240    0.52300    0.10550    1.000
    C29      C        0.18650    0.77200    0.67190    1.000
    C30      C        0.07710    0.71560    0.71290    1.000
    H11      H        0.97280    0.02670    0.89440    1.000
    C31      C        0.07470    0.07490    0.91610    1.000
    C32      C        0.20490    0.12210    0.94230    1.000
    C33      C        0.33190    0.06660    0.95680    1.000
    H12      H        0.31490    0.98120    0.94480    1.000
    H13      H        0.53050    0.00700    0.07000    1.000
    C34      C        0.43300    0.05860    0.09070    1.000
    C35      C        0.17370    0.06090    0.11850    1.000
    H14      H        0.18200    0.97610    0.10040    1.000
    C36      C        0.30700    0.11040    0.11440    1.000
    C37      C        0.34760    0.75600    0.35360    1.000
    H15      H        0.25550    0.77920    0.29780    1.000
    C38      C        0.45130    0.69170    0.31580    1.000
    C39      C        0.43770    0.65620    0.21840    1.000
    C40      C        0.91430    0.47270    0.07160    1.000
    H16      H        0.98490    0.53190    0.03390    1.000
    C41      C        0.92650    0.47250    0.17170    1.000
    C42      C        0.03410    0.53000    0.21940    1.000
    C43      C        0.41990    0.44540    0.01750    1.000
    C44      C        0.30900    0.50500    0.97320    1.000
    C45      C        0.48760    0.47420    0.10360    1.000
    H17      H        0.43660    0.54830    0.13560    1.000
    H18      H        0.23720    0.79210    0.67510    1.000
    C46      C        0.14250    0.76830    0.62020    1.000
    C47      C        0.03460    0.71210    0.66030    1.000
    C48      C        0.03850    0.69030    0.76140    1.000
    C49      C        0.01880    0.12810    0.91310    1.000
    H19      H        0.17730    0.15740    0.94170    1.000
    C50      C        0.29060    0.11930    0.95590    1.000
    H20      H        0.38920    0.06470    0.96590    1.000
    C51      C        0.48880    0.11260    0.09800    1.000
    C52      C        0.22060    0.11120    0.12370    1.000
    H21      H        0.11590    0.06140    0.12470    1.000
    H22      H        0.33840    0.14410    0.11800    1.000
    C53      C        0.41940    0.72480    0.36150    1.000
    H23      H        0.32730    0.77780    0.38310    1.000
    C54      C        0.52750    0.65730    0.32130    1.000
    H24      H        0.40880    0.65460    0.18410    1.000
    C55      C        0.51280    0.62720    0.22670    1.000
    C56      C        0.88860    0.45140    0.11970    1.000
    H25      H        0.89230    0.45740    0.03840    1.000
    C57      C        0.90480    0.44960    0.22500    1.000
    H26      H        0.07810    0.55650    0.21860    1.000
    C58      C        0.01030    0.50810    0.27050    1.000
    C59      C        0.47940    0.43700    0.06120    1.000
    C60      C        0.41260    0.40850    0.96870    1.000
    C61      C        0.30300    0.46870    0.92850    1.000
    H27      H        0.27340    0.53680    0.97430    1.000
    H28      H        0.52860    0.46860    0.13160    1.000
    H29      H        0.16510    0.78650    0.58920    1.000
    C62      C        0.07120    0.74030    0.61410    1.000
    C63      C        0.95650    0.68060    0.65800    1.000
    C64      C        0.96440    0.66290    0.75680    1.000
    H30      H        0.06550    0.69320    0.79630    1.000
    H31      H        0.32040    0.15280    0.96430    1.000
    H32      H        0.19410    0.14530    0.13340    1.000
    C65      C        0.46090    0.72760    0.41850    1.000
    C66      C        0.55400    0.62790    0.27770    1.000
    H33      H        0.55740    0.65580    0.35520    1.000
    H34      H        0.53590    0.60680    0.19720    1.000
    C67      C        0.81730    0.40800    0.12060    1.000
    C68      C        0.94720    0.46800    0.27310    1.000
    H35      H        0.86220    0.42220    0.22750    1.000
    H36      H        0.03730    0.52060    0.30330    1.000
    C69      C        0.53080    0.38260    0.06710    1.000
    C70      C        0.35560    0.42100    0.92640    1.000
    H37      H        0.44680    0.37610    0.96600    1.000
    H38      H        0.26410    0.47570    0.89970    1.000
    C71      C        0.03260    0.73850    0.55570    1.000
    H39      H        0.92830    0.67690    0.62360    1.000
    C72      C        0.92200    0.65600    0.70390    1.000
    H40      H        0.93990    0.64790    0.78870    1.000
    H41      H        0.60330    0.60650    0.28190    1.000
    H42      H        0.93250    0.45290    0.30760    1.000
    H43      H        0.35210    0.39680    0.89550    1.000
    H44      H        0.87200    0.63510    0.70080    1.000
    C73      C        0.06880    0.07400    0.92190    1.000
    C74      C        0.02590    0.02210    0.92650    1.000
    H45      H        0.96740    0.02190    0.92950    1.000
    C75      C        0.07040    0.97060    0.92670    1.000
    H46      H        0.04170    0.93590    0.92980    1.000
    C76      C        0.15790    0.97100    0.92220    1.000
    C77      C        0.20080    0.02280    0.91760    1.000
    C78      C        0.15620    0.07440    0.91740    1.000
    C79      C        0.19910    0.12620    0.91280    1.000
    H47      H        0.16930    0.16070    0.91270    1.000
    C80      C        0.28650    0.12660    0.90830    1.000
    H48      H        0.31520    0.16130    0.90520    1.000
    C81      C        0.33110    0.07510    0.90840    1.000
    H49      H        0.38960    0.07530    0.90550    1.000
    C82      C        0.28820    0.02320    0.91310    1.000
    H50      H        0.31800    0.98880    0.91320    1.000
    C83      C        0.43160    0.06070    0.08690    1.000
    C84      C        0.47430    0.00840    0.08880    1.000
    H51      H        0.53270    0.00780    0.09380    1.000
    C85      C        0.42970    0.95720    0.08300    1.000
    H52      H        0.45820    0.92230    0.08420    1.000
    C86      C        0.34240    0.95820    0.07540    1.000
    C87      C        0.29970    0.01050    0.07360    1.000
    C88      C        0.34430    0.06170    0.07940    1.000
    C89      C        0.30160    0.11390    0.07750    1.000
    H53      H        0.33150    0.14810    0.08140    1.000
    C90      C        0.21430    0.11490    0.06990    1.000
    H54      H        0.18570    0.14980    0.06870    1.000
    C91      C        0.16970    0.06370    0.06420    1.000
    H55      H        0.11130    0.06440    0.05910    1.000
    C92      C        0.21240    0.01150    0.06600    1.000
    H56      H        0.18250    0.97720    0.06220    1.000
    Yb8      Yb       0.25161    0.28724    0.51044    1.000
    O33      O        0.36870    0.31570    0.46370    1.000
    O34      O        0.34300    0.20750    0.49430    1.000
    O35      O        0.23900    0.25610    0.41890    1.000
    O36      O        0.26750    0.26620    0.60400    1.000
    O37      O        0.13740    0.32240    0.55700    1.000
    O38      O        0.15970    0.21270    0.53680    1.000
    O39      O        0.31670    0.37390    0.54700    1.000
    O40      O        0.18470    0.36670    0.46360    1.000
    Yb9      Yb       0.34163    0.31523    0.36692    1.000
    Yb10     Yb       0.47373    0.24910    0.47782    1.000
    H57      H        0.38730    0.35380    0.47620    1.000
    Yb11     Yb       0.30103    0.16708    0.40914    1.000
    H58      H        0.34450    0.17970    0.52520    1.000
    H59      H        0.18120    0.25810    0.40360    1.000
    Yb12     Yb       0.16898    0.33276    0.65047    1.000
    Yb13     Yb       0.19976    0.17874    0.62491    1.000
    H60      H        0.32590    0.26870    0.61820    1.000
    Yb14     Yb       0.03021    0.25718    0.55191    1.000
    H61      H        0.11920    0.35920    0.54080    1.000
    H62      H        0.15570    0.18200    0.50880    1.000
    C93      C        0.30220    0.41140    0.58460    1.000
    C94      C        0.20280    0.39960    0.42530    1.000
    O41      O        0.40900    0.23120    0.39150    1.000
    O42      O        0.45780    0.37040    0.37790    1.000
    O43      O        0.26530    0.26940    0.30220    1.000
    O44      O        0.25570    0.38790    0.38650    1.000
    O45      O        0.53760    0.33050    0.44410    1.000
    O46      O        0.46130    0.27580    0.57350    1.000
    O47      O        0.58770    0.26210    0.54110    1.000
    O48      O        0.23320    0.17930    0.32390    1.000
    O49      O        0.40040    0.09780    0.44030    1.000
    O50      O        0.39810    0.11620    0.35150    1.000
    O51      O        0.18660    0.12520    0.45630    1.000
    O52      O        0.23290    0.07780    0.38690    1.000
    O53      O        0.09740    0.24830    0.63810    1.000
    O54      O        0.25230    0.29410    0.71860    1.000
    O55      O        0.05300    0.39040    0.63160    1.000
    O56      O        0.25640    0.40230    0.62610    1.000
    O57      O        0.28110    0.20220    0.70190    1.000
    O58      O        0.31770    0.13380    0.58640    1.000
    O59      O        0.26070    0.08860    0.65490    1.000
    O60      O        0.09790    0.11690    0.59610    1.000
    O61      O        0.96760    0.34470    0.57020    1.000
    O62      O        0.00040    0.16270    0.54830    1.000
    O63      O        0.91890    0.25560    0.48450    1.000
    O64      O        0.04510    0.26860    0.45350    1.000
    C95      C        0.34290    0.46930    0.58200    1.000
    C96      C        0.16070    0.45800    0.41980    1.000
    H63      H        0.44820    0.21760    0.36320    1.000
    C97      C        0.22730    0.22330    0.29390    1.000
    C98      C        0.42420    0.08600    0.39170    1.000
    C99      C        0.18120    0.08300    0.42830    1.000
    H64      H        0.05890    0.23940    0.66860    1.000
    C100     C        0.29060    0.24520    0.72900    1.000
    C101     C        0.42870    0.47210    0.59560    1.000
    C102     C        0.29840    0.51930    0.56940    1.000
    C103     C        0.07420    0.45720    0.42910    1.000
    C104     C        0.20020    0.50900    0.40530    1.000
    C105     C        0.17050    0.22280    0.24220    1.000
    C106     C        0.48800    0.03760    0.38430    1.000
    C107     C        0.12560    0.03280    0.43560    1.000
    C108     C        0.34690    0.24540    0.78260    1.000
    C109     C        0.46990    0.52480    0.59650    1.000
    H65      H        0.45850    0.43860    0.60400    1.000
    C110     C        0.33960    0.57210    0.57030    1.000
    C111     C        0.21270    0.51660    0.55580    1.000
    C112     C        0.02740    0.50750    0.42380    1.000
    H66      H        0.04770    0.42300    0.43880    1.000
    C113     C        0.28670    0.50980    0.39600    1.000
    C114     C        0.15340    0.55940    0.40010    1.000
    C115     C        0.19680    0.25630    0.19780    1.000
    C116     C        0.09480    0.18900    0.23580    1.000
    C117     C        0.52770    0.01640    0.43140    1.000
    C118     C        0.50620    0.01370    0.33250    1.000
    C119     C        0.13270    0.99610    0.48230    1.000
    C120     C        0.06760    0.02300    0.39450    1.000
    C121     C        0.31350    0.27200    0.82810    1.000
    C122     C        0.42290    0.21560    0.78710    1.000
    H67      H        0.52720    0.52670    0.60560    1.000
    C123     C        0.42530    0.57490    0.58390    1.000
    C124     C        0.29510    0.62210    0.55770    1.000
    C125     C        0.16810    0.56660    0.54320    1.000
    H68      H        0.18510    0.48120    0.55520    1.000
    H69      H        0.96950    0.50700    0.43000    1.000
    C126     C        0.06700    0.55860    0.40930    1.000
    C127     C        0.32630    0.56090    0.38150    1.000
    H70      H        0.31800    0.47610    0.39960    1.000
    C128     C        0.19300    0.61040    0.38560    1.000
    C129     C        0.15240    0.25600    0.14640    1.000
    H71      H        0.24450    0.27920    0.20220    1.000
    C130     C        0.04870    0.19170    0.18420    1.000
    C131     C        0.06230    0.15620    0.28160    1.000
    C132     C        0.58570    0.97270    0.42840    1.000
    H72      H        0.51510    0.03190    0.46610    1.000
    C133     C        0.57350    0.97250    0.32830    1.000
    C134     C        0.46590    0.03000    0.28060    1.000
    C135     C        0.08010    0.94540    0.48250    1.000
    C136     C        0.19100    0.00500    0.52680    1.000
    C137     C        0.01240    0.97420    0.39640    1.000
    H73      H        0.06340    0.04830    0.36440    1.000
    H74      H        0.26280    0.29210    0.82490    1.000
    C138     C        0.35750    0.26830    0.87980    1.000
    C139     C        0.46540    0.21210    0.83970    1.000
    C140     C        0.46150    0.19030    0.73860    1.000
    C141     C        0.48120    0.62810    0.58690    1.000
    H75      H        0.32270    0.65740    0.55830    1.000
    C142     C        0.20940    0.61930    0.54410    1.000
    H76      H        0.11080    0.56470    0.53410    1.000
    C143     C        0.01120    0.61260    0.40200    1.000
    C144     C        0.27940    0.61120    0.37630    1.000
    H77      H        0.38410    0.56140    0.37530    1.000
    H78      H        0.16160    0.64410    0.38200    1.000
    C145     C        0.08060    0.22480    0.13850    1.000
    H79      H        0.17270    0.27780    0.11690    1.000
    C146     C        0.97250    0.15730    0.17870    1.000
    H80      H        0.09120    0.15460    0.31590    1.000
    C147     C        0.98720    0.12720    0.27330    1.000
    C148     C        0.61140    0.95140    0.38030    1.000
    H81      H        0.60770    0.95740    0.46160    1.000
    C149     C        0.59520    0.94960    0.27500    1.000
    H82      H        0.42190    0.05650    0.28140    1.000
    C150     C        0.48970    0.00810    0.22950    1.000
    C151     C        0.02060    0.93700    0.43880    1.000
    C152     C        0.08740    0.90850    0.53130    1.000
    C153     C        0.19700    0.96870    0.57150    1.000
    H83      H        0.22660    0.03680    0.52570    1.000
    H84      H        0.97140    0.96860    0.36840    1.000
    H85      H        0.33490    0.28650    0.91080    1.000
    C154     C        0.42880    0.24030    0.88590    1.000
    C155     C        0.54350    0.18060    0.84200    1.000
    C156     C        0.53560    0.16290    0.74320    1.000
    H86      H        0.43450    0.19320    0.70370    1.000
    H87      H        0.17960    0.65280    0.53570    1.000
    H88      H        0.30590    0.64530    0.36660    1.000
    C157     C        0.03910    0.22760    0.08150    1.000
    C158     C        0.94600    0.12790    0.22230    1.000
    H89      H        0.94260    0.15580    0.14480    1.000
    H90      H        0.96410    0.10680    0.30280    1.000
    C159     C        0.68270    0.90800    0.37940    1.000
    C160     C        0.55280    0.96800    0.22690    1.000
    H91      H        0.63780    0.92220    0.27250    1.000
    H92      H        0.46270    0.02060    0.19670    1.000
    C161     C        0.96920    0.88260    0.43290    1.000
    C162     C        0.14440    0.92100    0.57360    1.000
    H93      H        0.05320    0.87610    0.53400    1.000
    H94      H        0.23590    0.97570    0.60030    1.000
    C163     C        0.46740    0.23850    0.94430    1.000
    H95      H        0.57170    0.17690    0.87640    1.000
    C164     C        0.57800    0.15600    0.79610    1.000
    H96      H        0.56010    0.14790    0.71130    1.000
    H97      H        0.89670    0.10650    0.21810    1.000
    H98      H        0.56750    0.95290    0.19240    1.000
    H99      H        0.14790    0.89680    0.60450    1.000
    H100     H        0.62800    0.13510    0.79920    1.000
    C165     C        0.43120    0.57400    0.57810    1.000
    C166     C        0.47410    0.52210    0.57350    1.000
    H101     H        0.53260    0.52190    0.57050    1.000
    C167     C        0.42960    0.47060    0.57330    1.000
    H102     H        0.45830    0.43590    0.57020    1.000
    C168     C        0.34210    0.47100    0.57780    1.000
    C169     C        0.29920    0.52280    0.58240    1.000
    C170     C        0.34380    0.57440    0.58260    1.000
    C171     C        0.30090    0.62620    0.58720    1.000
    H103     H        0.33070    0.66070    0.58730    1.000
    C172     C        0.21350    0.62660    0.59170    1.000
    H104     H        0.18480    0.66130    0.59480    1.000
    C173     C        0.16890    0.57510    0.59160    1.000
    H105     H        0.11040    0.57530    0.59450    1.000
    C174     C        0.21180    0.52320    0.58690    1.000
    H106     H        0.18200    0.48880    0.58680    1.000
    C175     C        0.06840    0.56070    0.41310    1.000
    C176     C        0.02570    0.50840    0.41120    1.000
    H107     H        0.96730    0.50780    0.40620    1.000
    C177     C        0.07030    0.45720    0.41700    1.000
    H108     H        0.04180    0.42230    0.41580    1.000
    C178     C        0.15760    0.45820    0.42460    1.000
    C179     C        0.20030    0.51050    0.42640    1.000
    C180     C        0.15570    0.56170    0.42060    1.000
    C181     C        0.19840    0.61390    0.42250    1.000
    H109     H        0.16850    0.64810    0.41860    1.000
    C182     C        0.28570    0.61490    0.43010    1.000
    H110     H        0.31430    0.64980    0.43130    1.000
    C183     C        0.33030    0.56370    0.43580    1.000
    H111     H        0.38870    0.56440    0.44090    1.000
    C184     C        0.28760    0.51150    0.43400    1.000
    H112     H        0.31750    0.47720    0.43780    1.000
    Yb15     Yb       0.75161    0.21276    0.01044    1.000
    O65      O        0.86870    0.18430    0.96370    1.000
    O66      O        0.84300    0.29250    0.99430    1.000
    O67      O        0.73900    0.24390    0.91890    1.000
    O68      O        0.76750    0.23380    0.10400    1.000
    O69      O        0.63740    0.17760    0.05700    1.000
    O70      O        0.65970    0.28730    0.03680    1.000
    O71      O        0.81670    0.12610    0.04700    1.000
    O72      O        0.68470    0.13330    0.96360    1.000
    Yb16     Yb       0.84163    0.18477    0.86692    1.000
    Yb17     Yb       0.97373    0.25090    0.97782    1.000
    H113     H        0.88730    0.14620    0.97620    1.000
    Yb18     Yb       0.80103    0.33292    0.90914    1.000
    H114     H        0.84450    0.32030    0.02520    1.000
    H115     H        0.68120    0.24190    0.90360    1.000
    Yb19     Yb       0.66898    0.16724    0.15047    1.000
    Yb20     Yb       0.69976    0.32126    0.12491    1.000
    H116     H        0.82590    0.23130    0.11820    1.000
    Yb21     Yb       0.53021    0.24282    0.05191    1.000
    H117     H        0.61920    0.14080    0.04080    1.000
    H118     H        0.65570    0.31800    0.00880    1.000
    C185     C        0.80220    0.08860    0.08460    1.000
    C186     C        0.70280    0.10040    0.92530    1.000
    O73      O        0.90900    0.26880    0.89150    1.000
    O74      O        0.95780    0.12960    0.87790    1.000
    O75      O        0.76530    0.23060    0.80220    1.000
    O76      O        0.75570    0.11210    0.88650    1.000
    O77      O        0.03760    0.16950    0.94410    1.000
    O78      O        0.96130    0.22420    0.07350    1.000
    O79      O        0.08770    0.23790    0.04110    1.000
    O80      O        0.73320    0.32070    0.82390    1.000
    O81      O        0.90040    0.40220    0.94030    1.000
    O82      O        0.89810    0.38380    0.85150    1.000
    O83      O        0.68660    0.37480    0.95630    1.000
    O84      O        0.73290    0.42220    0.88690    1.000
    O85      O        0.59740    0.25170    0.13810    1.000
    O86      O        0.75230    0.20590    0.21860    1.000
    O87      O        0.55300    0.10960    0.13160    1.000
    O88      O        0.75640    0.09770    0.12610    1.000
    O89      O        0.78110    0.29780    0.20190    1.000
    O90      O        0.81770    0.36620    0.08640    1.000
    O91      O        0.76070    0.41140    0.15490    1.000
    O92      O        0.59790    0.38310    0.09610    1.000
    O93      O        0.46760    0.15530    0.07020    1.000
    O94      O        0.50040    0.33730    0.04830    1.000
    O95      O        0.41890    0.24440    0.98450    1.000
    O96      O        0.54510    0.23140    0.95350    1.000
    C187     C        0.84290    0.03070    0.08200    1.000
    C188     C        0.66070    0.04200    0.91980    1.000
    H119     H        0.94820    0.28240    0.86320    1.000
    C189     C        0.72730    0.27670    0.79390    1.000
    C190     C        0.92420    0.41400    0.89170    1.000
    C191     C        0.68120    0.41700    0.92830    1.000
    H120     H        0.55890    0.26060    0.16860    1.000
    C192     C        0.79060    0.25480    0.22900    1.000
    C193     C        0.92870    0.02790    0.09560    1.000
    C194     C        0.79840    0.98070    0.06940    1.000
    C195     C        0.57420    0.04280    0.92910    1.000
    C196     C        0.70020    0.99100    0.90530    1.000
    C197     C        0.67050    0.27720    0.74220    1.000
    C198     C        0.98800    0.46240    0.88430    1.000
    C199     C        0.62560    0.46720    0.93560    1.000
    C200     C        0.84690    0.25460    0.28260    1.000
    C201     C        0.96990    0.97520    0.09650    1.000
    H121     H        0.95850    0.06140    0.10400    1.000
    C202     C        0.83960    0.92790    0.07030    1.000
    C203     C        0.71270    0.98340    0.05580    1.000
    C204     C        0.52740    0.99250    0.92380    1.000
    H122     H        0.54770    0.07700    0.93880    1.000
    C205     C        0.78670    0.99020    0.89600    1.000
    C206     C        0.65340    0.94060    0.90010    1.000
    C207     C        0.69680    0.24370    0.69780    1.000
    C208     C        0.59480    0.31100    0.73580    1.000
    C209     C        0.02770    0.48360    0.93140    1.000
    C210     C        0.00620    0.48630    0.83250    1.000
    C211     C        0.63270    0.50390    0.98230    1.000
    C212     C        0.56760    0.47700    0.89450    1.000
    C213     C        0.81350    0.22800    0.32810    1.000
    C214     C        0.92290    0.28440    0.28710    1.000
    H123     H        0.02720    0.97330    0.10560    1.000
    C215     C        0.92530    0.92510    0.08390    1.000
    C216     C        0.79510    0.87790    0.05770    1.000
    C217     C        0.66810    0.93340    0.04320    1.000
    H124     H        0.68510    0.01880    0.05520    1.000
    H125     H        0.46950    0.99300    0.93000    1.000
    C218     C        0.56700    0.94140    0.90930    1.000
    C219     C        0.82630    0.93910    0.88150    1.000
    H126     H        0.81800    0.02390    0.89960    1.000
    C220     C        0.69300    0.88960    0.88560    1.000
    C221     C        0.65240    0.24400    0.64640    1.000
    H127     H        0.74450    0.22080    0.70220    1.000
    C222     C        0.54870    0.30830    0.68420    1.000
    C223     C        0.56230    0.34380    0.78160    1.000
    C224     C        0.08570    0.52730    0.92840    1.000
    H128     H        0.01510    0.46810    0.96610    1.000
    C225     C        0.07350    0.52750    0.82830    1.000
    C226     C        0.96590    0.47000    0.78060    1.000
    C227     C        0.58010    0.55460    0.98250    1.000
    C228     C        0.69100    0.49500    0.02680    1.000
    C229     C        0.51240    0.52580    0.89640    1.000
    H129     H        0.56340    0.45170    0.86440    1.000
    H130     H        0.76280    0.20790    0.32490    1.000
    C230     C        0.85750    0.23170    0.37980    1.000
    C231     C        0.96540    0.28790    0.33970    1.000
    C232     C        0.96150    0.30970    0.23860    1.000
    C233     C        0.98120    0.87190    0.08690    1.000
    H131     H        0.82270    0.84260    0.05830    1.000
    C234     C        0.70940    0.88070    0.04410    1.000
    H132     H        0.61080    0.93530    0.03410    1.000
    C235     C        0.51120    0.88740    0.90200    1.000
    C236     C        0.77940    0.88880    0.87630    1.000
    H133     H        0.88410    0.93860    0.87530    1.000
    H134     H        0.66160    0.85590    0.88200    1.000
    C237     C        0.58060    0.27520    0.63850    1.000
    H135     H        0.67270    0.22220    0.61690    1.000
    C238     C        0.47250    0.34270    0.67870    1.000
    H136     H        0.59120    0.34540    0.81590    1.000
    C239     C        0.48720    0.37280    0.77330    1.000
    C240     C        0.11140    0.54860    0.88030    1.000
    H137     H        0.10770    0.54260    0.96160    1.000
    C241     C        0.09520    0.55040    0.77500    1.000
    H138     H        0.92190    0.44350    0.78140    1.000
    C242     C        0.98970    0.49190    0.72950    1.000
    C243     C        0.52060    0.56300    0.93880    1.000
    C244     C        0.58740    0.59150    0.03130    1.000
    C245     C        0.69700    0.53130    0.07150    1.000
    H139     H        0.72660    0.46320    0.02570    1.000
    H140     H        0.47140    0.53140    0.86840    1.000
    H141     H        0.83490    0.21350    0.41080    1.000
    C246     C        0.92880    0.25970    0.38590    1.000
    C247     C        0.04350    0.31940    0.34200    1.000
    C248     C        0.03560    0.33710    0.24320    1.000
    H142     H        0.93450    0.30680    0.20370    1.000
    H143     H        0.67960    0.84720    0.03570    1.000
    H144     H        0.80590    0.85470    0.86660    1.000
    C249     C        0.53910    0.27240    0.58150    1.000
    C250     C        0.44600    0.37210    0.72230    1.000
    H145     H        0.44260    0.34420    0.64480    1.000
    H146     H        0.46410    0.39320    0.80280    1.000
    C251     C        0.18270    0.59200    0.87940    1.000
    C252     C        0.05280    0.53200    0.72690    1.000
    H147     H        0.13780    0.57780    0.77250    1.000
    H148     H        0.96270    0.47940    0.69670    1.000
    C253     C        0.46920    0.61740    0.93290    1.000
    C254     C        0.64440    0.57900    0.07360    1.000
    H149     H        0.55320    0.62390    0.03400    1.000
    H150     H        0.73590    0.52430    0.10030    1.000
    C255     C        0.96740    0.26150    0.44430    1.000
    H151     H        0.07170    0.32310    0.37640    1.000
    C256     C        0.07800    0.34400    0.29610    1.000
    H152     H        0.06010    0.35210    0.21130    1.000
    H153     H        0.39670    0.39350    0.71810    1.000
    H154     H        0.06750    0.54710    0.69240    1.000
    H155     H        0.64790    0.60320    0.10450    1.000
    H156     H        0.12800    0.36490    0.29920    1.000
    C257     C        0.93120    0.92600    0.07810    1.000
    C258     C        0.97410    0.97790    0.07350    1.000
    H157     H        0.03260    0.97810    0.07050    1.000
    C259     C        0.92960    0.02940    0.07330    1.000
    H158     H        0.95830    0.06410    0.07020    1.000
    C260     C        0.84210    0.02900    0.07780    1.000
    C261     C        0.79920    0.97720    0.08240    1.000
    C262     C        0.84380    0.92560    0.08260    1.000
    C263     C        0.80090    0.87380    0.08720    1.000
    H159     H        0.83070    0.83930    0.08730    1.000
    C264     C        0.71350    0.87340    0.09170    1.000
    H160     H        0.68480    0.83870    0.09480    1.000
    C265     C        0.66890    0.92490    0.09160    1.000
    H161     H        0.61040    0.92470    0.09450    1.000
    C266     C        0.71180    0.97680    0.08690    1.000
    H162     H        0.68200    0.01120    0.08680    1.000
    C267     C        0.56840    0.93930    0.91310    1.000
    C268     C        0.52570    0.99160    0.91120    1.000
    H163     H        0.46730    0.99220    0.90620    1.000
    C269     C        0.57030    0.04280    0.91700    1.000
    H164     H        0.54180    0.07770    0.91580    1.000
    C270     C        0.65760    0.04180    0.92460    1.000
    C271     C        0.70030    0.98950    0.92640    1.000
    C272     C        0.65570    0.93830    0.92060    1.000
    C273     C        0.69840    0.88610    0.92250    1.000
    H165     H        0.66850    0.85190    0.91860    1.000
    C274     C        0.78570    0.88510    0.93010    1.000
    H166     H        0.81430    0.85020    0.93130    1.000
    C275     C        0.83030    0.93630    0.93580    1.000
    H167     H        0.88870    0.93560    0.94090    1.000
    C276     C        0.78760    0.98850    0.93400    1.000
    H168     H        0.81750    0.02280    0.93780    1.000
    Yb22     Yb       0.74839    0.71276    0.48956    1.000
    O97      O        0.63130    0.68430    0.53630    1.000
    O98      O        0.65700    0.79250    0.50570    1.000
    O99      O        0.76100    0.74390    0.58110    1.000
    O100     O        0.73250    0.73380    0.39600    1.000
    O101     O        0.86260    0.67760    0.44300    1.000
    O102     O        0.84030    0.78730    0.46320    1.000
    O103     O        0.68330    0.62610    0.45300    1.000
    O104     O        0.81530    0.63330    0.53640    1.000
    Yb23     Yb       0.65837    0.68477    0.63308    1.000
    Yb24     Yb       0.52627    0.75090    0.52218    1.000
    H169     H        0.61270    0.64620    0.52380    1.000
    Yb25     Yb       0.69897    0.83292    0.59086    1.000
    H170     H        0.65550    0.82030    0.47480    1.000
    H171     H        0.81880    0.74190    0.59640    1.000
    Yb26     Yb       0.83102    0.66724    0.34953    1.000
    Yb27     Yb       0.80024    0.82126    0.37509    1.000
    H172     H        0.67410    0.73130    0.38180    1.000
    Yb28     Yb       0.96979    0.74282    0.44809    1.000
    H173     H        0.88080    0.64080    0.45920    1.000
    H174     H        0.84430    0.81800    0.49120    1.000
    C277     C        0.69780    0.58860    0.41540    1.000
    C278     C        0.79720    0.60040    0.57470    1.000
    O105     O        0.59100    0.76880    0.60850    1.000
    O106     O        0.54220    0.62960    0.62210    1.000
    O107     O        0.73470    0.73060    0.69780    1.000
    O108     O        0.74430    0.61210    0.61350    1.000
    O109     O        0.46240    0.66950    0.55590    1.000
    O110     O        0.53870    0.72420    0.42650    1.000
    O111     O        0.41230    0.73790    0.45890    1.000
    O112     O        0.76680    0.82070    0.67610    1.000
    O113     O        0.59960    0.90220    0.55970    1.000
    O114     O        0.60190    0.88380    0.64850    1.000
    O115     O        0.81340    0.87480    0.54370    1.000
    O116     O        0.76710    0.92220    0.61310    1.000
    O117     O        0.90260    0.75170    0.36190    1.000
    O118     O        0.74770    0.70590    0.28140    1.000
    O119     O        0.94700    0.60960    0.36840    1.000
    O120     O        0.74360    0.59770    0.37390    1.000
    O121     O        0.71890    0.79780    0.29810    1.000
    O122     O        0.68230    0.86620    0.41360    1.000
    O123     O        0.73930    0.91140    0.34510    1.000
    O124     O        0.90210    0.88310    0.40390    1.000
    O125     O        0.03240    0.65530    0.42980    1.000
    O126     O        0.99960    0.83730    0.45170    1.000
    O127     O        0.08110    0.74440    0.51550    1.000
    O128     O        0.95490    0.73140    0.54650    1.000
    C279     C        0.65710    0.53070    0.41800    1.000
    C280     C        0.83930    0.54200    0.58020    1.000
    H175     H        0.55180    0.78240    0.63680    1.000
    C281     C        0.77270    0.77670    0.70610    1.000
    C282     C        0.57580    0.91400    0.60830    1.000
    C283     C        0.81880    0.91700    0.57170    1.000
    H176     H        0.94110    0.76060    0.33140    1.000
    C284     C        0.70940    0.75480    0.27100    1.000
    C285     C        0.57130    0.52790    0.40440    1.000
    C286     C        0.70160    0.48070    0.43060    1.000
    C287     C        0.92580    0.54280    0.57090    1.000
    C288     C        0.79980    0.49100    0.59470    1.000
    C289     C        0.82950    0.77720    0.75780    1.000
    C290     C        0.51200    0.96240    0.61570    1.000
    C291     C        0.87440    0.96720    0.56440    1.000
    C292     C        0.65310    0.75460    0.21740    1.000
    C293     C        0.53010    0.47520    0.40350    1.000
    H177     H        0.54150    0.56140    0.39600    1.000
    C294     C        0.66040    0.42790    0.42970    1.000
    C295     C        0.78730    0.48340    0.44420    1.000
    C296     C        0.97260    0.49250    0.57620    1.000
    H178     H        0.95230    0.57700    0.56120    1.000
    C297     C        0.71330    0.49020    0.60400    1.000
    C298     C        0.84660    0.44060    0.59990    1.000
    C299     C        0.80320    0.74370    0.80220    1.000
    C300     C        0.90520    0.81100    0.76420    1.000
    C301     C        0.47230    0.98360    0.56860    1.000
    C302     C        0.49380    0.98630    0.66750    1.000
    C303     C        0.86730    0.00390    0.51770    1.000
    C304     C        0.93240    0.97700    0.60550    1.000
    C305     C        0.68650    0.72800    0.17190    1.000
    C306     C        0.57710    0.78440    0.21290    1.000
    H179     H        0.47280    0.47330    0.39440    1.000
    C307     C        0.57470    0.42510    0.41610    1.000
    C308     C        0.70490    0.37790    0.44230    1.000
    C309     C        0.83190    0.43340    0.45680    1.000
    H180     H        0.81490    0.51880    0.44480    1.000
    H181     H        0.03050    0.49300    0.57000    1.000
    C310     C        0.93300    0.44140    0.59070    1.000
    C311     C        0.67370    0.43910    0.61850    1.000
    H182     H        0.68200    0.52390    0.60040    1.000
    C312     C        0.80700    0.38960    0.61440    1.000
    C313     C        0.84760    0.74400    0.85360    1.000
    H183     H        0.75550    0.72080    0.79780    1.000
    C314     C        0.95130    0.80830    0.81580    1.000
    C315     C        0.93770    0.84380    0.71840    1.000
    C316     C        0.41430    0.02730    0.57160    1.000
    H184     H        0.48490    0.96810    0.53390    1.000
    C317     C        0.42650    0.02750    0.67170    1.000
    C318     C        0.53410    0.97000    0.71940    1.000
    C319     C        0.91990    0.05460    0.51750    1.000
    C320     C        0.80900    0.99500    0.47320    1.000
    C321     C        0.98760    0.02580    0.60360    1.000
    H185     H        0.93660    0.95170    0.63560    1.000
    H186     H        0.73720    0.70790    0.17510    1.000
    C322     C        0.64250    0.73170    0.12020    1.000
    C323     C        0.53460    0.78790    0.16030    1.000
    C324     C        0.53850    0.80970    0.26140    1.000
    C325     C        0.51880    0.37190    0.41310    1.000
    H187     H        0.67730    0.34260    0.44170    1.000
    C326     C        0.79060    0.38070    0.45590    1.000
    H188     H        0.88920    0.43530    0.46590    1.000
    C327     C        0.98880    0.38740    0.59800    1.000
    C328     C        0.72060    0.38880    0.62370    1.000
    H189     H        0.61590    0.43860    0.62470    1.000
    H190     H        0.83840    0.35590    0.61800    1.000
    C329     C        0.91940    0.77520    0.86150    1.000
    H191     H        0.82730    0.72220    0.88310    1.000
    C330     C        0.02750    0.84270    0.82130    1.000
    H192     H        0.90880    0.84540    0.68410    1.000
    C331     C        0.01280    0.87280    0.72670    1.000
    C332     C        0.38860    0.04860    0.61970    1.000
    H193     H        0.39230    0.04260    0.53840    1.000
    C333     C        0.40480    0.05040    0.72500    1.000
    H194     H        0.57810    0.94350    0.71860    1.000
    C334     C        0.51030    0.99190    0.77050    1.000
    C335     C        0.97940    0.06300    0.56120    1.000
    C336     C        0.91260    0.09150    0.46870    1.000
    C337     C        0.80300    0.03130    0.42850    1.000
    H195     H        0.77340    0.96320    0.47430    1.000
    H196     H        0.02860    0.03140    0.63160    1.000
    H197     H        0.66510    0.71350    0.08920    1.000
    C338     C        0.57120    0.75970    0.11410    1.000
    C339     C        0.45650    0.81940    0.15800    1.000
    C340     C        0.46440    0.83710    0.25680    1.000
    H198     H        0.56550    0.80680    0.29630    1.000
    H199     H        0.82040    0.34720    0.46430    1.000
    H200     H        0.69410    0.35470    0.63340    1.000
    C341     C        0.96090    0.77240    0.91850    1.000
    C342     C        0.05400    0.87210    0.77770    1.000
    H201     H        0.05740    0.84420    0.85520    1.000
    H202     H        0.03590    0.89320    0.69720    1.000
    C343     C        0.31730    0.09200    0.62060    1.000
    C344     C        0.44720    0.03200    0.77310    1.000
    H203     H        0.36220    0.07780    0.72750    1.000
    H204     H        0.53730    0.97940    0.80330    1.000
    C345     C        0.03080    0.11740    0.56710    1.000
    C346     C        0.85560    0.07900    0.42640    1.000
    H205     H        0.94680    0.12390    0.46600    1.000
    H206     H        0.76410    0.02430    0.39970    1.000
    C347     C        0.53260    0.76150    0.05570    1.000
    H207     H        0.42830    0.82310    0.12360    1.000
    C348     C        0.42200    0.84400    0.20390    1.000
    H208     H        0.43990    0.85210    0.28870    1.000
    H209     H        0.10330    0.89350    0.78190    1.000
    H210     H        0.43250    0.04710    0.80760    1.000
    H211     H        0.85210    0.10320    0.39550    1.000
    H212     H        0.37200    0.86490    0.20080    1.000
    C349     C        0.56880    0.42600    0.42190    1.000
    C350     C        0.52590    0.47790    0.42650    1.000
    H213     H        0.46740    0.47810    0.42950    1.000
    C351     C        0.57040    0.52940    0.42670    1.000
    H214     H        0.54170    0.56410    0.42980    1.000
    C352     C        0.65790    0.52900    0.42220    1.000
    C353     C        0.70080    0.47720    0.41760    1.000
    C354     C        0.65620    0.42560    0.41740    1.000
    C355     C        0.69910    0.37380    0.41280    1.000
    H215     H        0.66930    0.33930    0.41270    1.000
    C356     C        0.78650    0.37340    0.40830    1.000
    H216     H        0.81520    0.33870    0.40520    1.000
    C357     C        0.83110    0.42490    0.40840    1.000
    H217     H        0.88960    0.42470    0.40550    1.000
    C358     C        0.78820    0.47680    0.41310    1.000
    H218     H        0.81800    0.51120    0.41320    1.000
    C359     C        0.93160    0.43930    0.58690    1.000
    C360     C        0.97430    0.49160    0.58880    1.000
    H219     H        0.03270    0.49220    0.59380    1.000
    C361     C        0.92970    0.54280    0.58300    1.000
    H220     H        0.95820    0.57770    0.58420    1.000
    C362     C        0.84240    0.54180    0.57540    1.000
    C363     C        0.79970    0.48950    0.57360    1.000
    C364     C        0.84430    0.43830    0.57940    1.000
    C365     C        0.80160    0.38610    0.57750    1.000
    H221     H        0.83150    0.35190    0.58140    1.000
    C366     C        0.71430    0.38510    0.56990    1.000
    H222     H        0.68570    0.35020    0.56870    1.000
    C367     C        0.66970    0.43630    0.56420    1.000
    H223     H        0.61130    0.43560    0.55910    1.000
    C368     C        0.71240    0.48850    0.56600    1.000
    H224     H        0.68250    0.52280    0.56220    1.000
