# CIF file generated by openbabel 3.1.0, see https://openbabel.org
data_I
_chemical_name_common 'image0'
_cell_length_a 19.6084
_cell_length_b 11.9016
_cell_length_c 21.9364
_cell_angle_alpha 90
_cell_angle_beta 97.186
_cell_angle_gamma 90
_space_group_name_H-M_alt 'P 1'
_space_group_name_Hall 'P 1'
loop_
    _symmetry_equiv_pos_as_xyz
    x,y,z
loop_
    _atom_site_label
    _atom_site_type_symbol
    _atom_site_fract_x
    _atom_site_fract_y
    _atom_site_fract_z
    _atom_site_occupancy
    Tb1      Tb       0.83076    0.33084    0.47426    1.000
    O1       O        0.80021    0.15739    0.51471    1.000
    O2       O        0.67796    0.13537    0.41949    1.000
    O3       O        0.74268    0.00212    0.52434    1.000
    O4       O        0.76697    0.23539    0.39205    1.000
    C1       C        0.66408    0.17440    0.21109    1.000
    H1       H        0.65050    0.22990    0.18080    1.000
    O5       O        0.05228    0.71996    0.47769    1.000
    O6       O        0.08600    0.78222    0.57034    1.000
    C2       C        0.71848    0.16747    0.38192    1.000
    O7       O        0.59540    0.09071    0.09798    1.000
    C3       C        0.68855    0.81718    0.34566    1.000
    H2       H        0.64930    0.80380    0.31660    1.000
    C4       C        0.92061    0.82400    0.47762    1.000
    H3       H        0.92250    0.76360    0.44960    1.000
    O8       O        0.65282    0.92960    0.11425    1.000
    C5       C        0.80073    0.86360    0.42918    1.000
    C6       C        0.70080    0.01090    0.30168    1.000
    C7       C        0.70320    0.12530    0.31697    1.000
    C8       C        0.97711    0.84650    0.52218    1.000
    N1       N        0.77696    0.94510    0.38954    1.000
    C9       C        0.86133    0.98240    0.51470    1.000
    C10      C        0.72289    0.92210    0.34791    1.000
    C11      C        0.04178    0.77790    0.52357    1.000
    C12      C        0.91787    0.00450    0.55822    1.000
    H4       H        0.91710    0.06710    0.58500    1.000
    C13      C        0.97525    0.93530    0.56244    1.000
    H5       H        0.01310    0.94900    0.59300    1.000
    C14      C        0.63489    0.02420    0.13103    1.000
    C15      C        0.68047    0.98080    0.24021    1.000
    H6       H        0.68030    0.90370    0.22900    1.000
    C16      C        0.79766    0.05150    0.51725    1.000
    C17      C        0.86182    0.89080    0.47482    1.000
    C18      C        0.68729    0.20610    0.27073    1.000
    H7       H        0.69250    0.28360    0.28060    1.000
    C19      C        0.66058    0.06050    0.19545    1.000
    C20      C        0.77108    0.75640    0.42885    1.000
    H8       H        0.78980    0.70000    0.45670    1.000
    C21      C        0.71372    0.73490    0.38688    1.000
    H9       H        0.69170    0.66370    0.38650    1.000
    Tb2      Tb       0.33076    0.83084    0.47426    1.000
    O9       O        0.30021    0.65739    0.51471    1.000
    O10      O        0.17796    0.63537    0.41949    1.000
    O11      O        0.24268    0.50212    0.52434    1.000
    O12      O        0.26697    0.73539    0.39205    1.000
    C22      C        0.16408    0.67440    0.21109    1.000
    H10      H        0.15050    0.72990    0.18080    1.000
    O13      O        0.55228    0.21996    0.47769    1.000
    O14      O        0.58600    0.28222    0.57034    1.000
    C23      C        0.21848    0.66747    0.38192    1.000
    O15      O        0.09540    0.59071    0.09798    1.000
    C24      C        0.18855    0.31718    0.34566    1.000
    H11      H        0.14930    0.30380    0.31660    1.000
    C25      C        0.42061    0.32400    0.47762    1.000
    H12      H        0.42250    0.26360    0.44960    1.000
    O16      O        0.15282    0.42960    0.11425    1.000
    C26      C        0.30073    0.36360    0.42918    1.000
    C27      C        0.20080    0.51090    0.30168    1.000
    C28      C        0.20320    0.62530    0.31697    1.000
    C29      C        0.47711    0.34650    0.52218    1.000
    N2       N        0.27696    0.44510    0.38954    1.000
    C30      C        0.36133    0.48240    0.51470    1.000
    C31      C        0.22289    0.42210    0.34791    1.000
    C32      C        0.54178    0.27790    0.52357    1.000
    C33      C        0.41787    0.50450    0.55822    1.000
    H13      H        0.41710    0.56710    0.58500    1.000
    C34      C        0.47525    0.43530    0.56244    1.000
    H14      H        0.51310    0.44900    0.59300    1.000
    C35      C        0.13489    0.52420    0.13103    1.000
    C36      C        0.18047    0.48080    0.24021    1.000
    H15      H        0.18030    0.40370    0.22900    1.000
    C37      C        0.29766    0.55150    0.51725    1.000
    C38      C        0.36182    0.39080    0.47482    1.000
    C39      C        0.18729    0.70610    0.27073    1.000
    H16      H        0.19250    0.78360    0.28060    1.000
    C40      C        0.16058    0.56050    0.19545    1.000
    C41      C        0.27108    0.25640    0.42885    1.000
    H17      H        0.28980    0.20000    0.45670    1.000
    C42      C        0.21372    0.23490    0.38688    1.000
    H18      H        0.19170    0.16370    0.38650    1.000
    Tb3      Tb       0.16924    0.33084    0.02574    1.000
    O17      O        0.19979    0.15739    0.98529    1.000
    O18      O        0.32204    0.13537    0.08051    1.000
    O19      O        0.25732    0.00212    0.97566    1.000
    O20      O        0.23303    0.23539    0.10795    1.000
    C43      C        0.33592    0.17440    0.28891    1.000
    H19      H        0.34950    0.22990    0.31920    1.000
    O21      O        0.94772    0.71996    0.02231    1.000
    O22      O        0.91400    0.78222    0.92966    1.000
    C44      C        0.28152    0.16747    0.11808    1.000
    O23      O        0.40460    0.09071    0.40202    1.000
    C45      C        0.31145    0.81718    0.15434    1.000
    H20      H        0.35070    0.80380    0.18340    1.000
    C46      C        0.07939    0.82400    0.02238    1.000
    H21      H        0.07750    0.76360    0.05040    1.000
    O24      O        0.34718    0.92960    0.38575    1.000
    C47      C        0.19927    0.86360    0.07082    1.000
    C48      C        0.29920    0.01090    0.19832    1.000
    C49      C        0.29680    0.12530    0.18303    1.000
    C50      C        0.02289    0.84650    0.97782    1.000
    N3       N        0.22304    0.94510    0.11046    1.000
    C51      C        0.13867    0.98240    0.98530    1.000
    C52      C        0.27711    0.92210    0.15209    1.000
    C53      C        0.95822    0.77790    0.97643    1.000
    C54      C        0.08213    0.00450    0.94178    1.000
    H22      H        0.08290    0.06710    0.91500    1.000
    C55      C        0.02475    0.93530    0.93756    1.000
    H23      H        0.98690    0.94900    0.90700    1.000
    C56      C        0.36511    0.02420    0.36897    1.000
    C57      C        0.31953    0.98080    0.25979    1.000
    H24      H        0.31970    0.90370    0.27100    1.000
    C58      C        0.20234    0.05150    0.98275    1.000
    C59      C        0.13818    0.89080    0.02518    1.000
    C60      C        0.31271    0.20610    0.22927    1.000
    H25      H        0.30750    0.28360    0.21940    1.000
    C61      C        0.33942    0.06050    0.30455    1.000
    C62      C        0.22892    0.75640    0.07115    1.000
    H26      H        0.21020    0.70000    0.04330    1.000
    C63      C        0.28628    0.73490    0.11312    1.000
    H27      H        0.30830    0.66370    0.11350    1.000
    Tb4      Tb       0.66924    0.83084    0.02574    1.000
    O25      O        0.69979    0.65739    0.98529    1.000
    O26      O        0.82204    0.63537    0.08051    1.000
    O27      O        0.75732    0.50212    0.97566    1.000
    O28      O        0.73303    0.73539    0.10795    1.000
    C64      C        0.83592    0.67440    0.28891    1.000
    H28      H        0.84950    0.72990    0.31920    1.000
    O29      O        0.44772    0.21996    0.02231    1.000
    O30      O        0.41400    0.28222    0.92966    1.000
    C65      C        0.78152    0.66747    0.11808    1.000
    O31      O        0.90460    0.59071    0.40202    1.000
    C66      C        0.81145    0.31718    0.15434    1.000
    H29      H        0.85070    0.30380    0.18340    1.000
    C67      C        0.57939    0.32400    0.02238    1.000
    H30      H        0.57750    0.26360    0.05040    1.000
    O32      O        0.84718    0.42960    0.38575    1.000
    C68      C        0.69927    0.36360    0.07082    1.000
    C69      C        0.79920    0.51090    0.19832    1.000
    C70      C        0.79680    0.62530    0.18303    1.000
    C71      C        0.52289    0.34650    0.97782    1.000
    N4       N        0.72304    0.44510    0.11046    1.000
    C72      C        0.63867    0.48240    0.98530    1.000
    C73      C        0.77711    0.42210    0.15209    1.000
    C74      C        0.45822    0.27790    0.97643    1.000
    C75      C        0.58213    0.50450    0.94178    1.000
    H31      H        0.58290    0.56710    0.91500    1.000
    C76      C        0.52475    0.43530    0.93756    1.000
    H32      H        0.48690    0.44900    0.90700    1.000
    C77      C        0.86511    0.52420    0.36897    1.000
    C78      C        0.81953    0.48080    0.25979    1.000
    H33      H        0.81970    0.40370    0.27100    1.000
    C79      C        0.70234    0.55150    0.98275    1.000
    C80      C        0.63818    0.39080    0.02518    1.000
    C81      C        0.81271    0.70610    0.22927    1.000
    H34      H        0.80750    0.78360    0.21940    1.000
    C82      C        0.83942    0.56050    0.30455    1.000
    C83      C        0.72892    0.25640    0.07115    1.000
    H35      H        0.71020    0.20000    0.04330    1.000
    C84      C        0.78628    0.23490    0.11312    1.000
    H36      H        0.80830    0.16370    0.11350    1.000
    Tb5      Tb       0.16924    0.66916    0.52574    1.000
    O33      O        0.19979    0.84261    0.48529    1.000
    O34      O        0.32204    0.86463    0.58051    1.000
    O35      O        0.25732    0.99788    0.47566    1.000
    O36      O        0.23303    0.76461    0.60795    1.000
    C85      C        0.33592    0.82560    0.78891    1.000
    H37      H        0.34950    0.77010    0.81920    1.000
    O37      O        0.94772    0.28004    0.52231    1.000
    O38      O        0.91400    0.21778    0.42966    1.000
    C86      C        0.28152    0.83253    0.61808    1.000
    O39      O        0.40460    0.90929    0.90202    1.000
    C87      C        0.31145    0.18282    0.65434    1.000
    H38      H        0.35070    0.19620    0.68340    1.000
    C88      C        0.07939    0.17600    0.52238    1.000
    H39      H        0.07750    0.23640    0.55040    1.000
    O40      O        0.34718    0.07040    0.88575    1.000
    C89      C        0.19927    0.13640    0.57082    1.000
    C90      C        0.29920    0.98910    0.69832    1.000
    C91      C        0.29680    0.87470    0.68303    1.000
    C92      C        0.02289    0.15350    0.47782    1.000
    N5       N        0.22304    0.05490    0.61046    1.000
    C93      C        0.13867    0.01760    0.48530    1.000
    C94      C        0.27711    0.07790    0.65209    1.000
    C95      C        0.95822    0.22210    0.47643    1.000
    C96      C        0.08213    0.99550    0.44178    1.000
    H40      H        0.08290    0.93290    0.41500    1.000
    C97      C        0.02475    0.06470    0.43756    1.000
    H41      H        0.98690    0.05100    0.40700    1.000
    C98      C        0.36511    0.97580    0.86897    1.000
    C99      C        0.31953    0.01920    0.75979    1.000
    H42      H        0.31970    0.09630    0.77100    1.000
    C100     C        0.20234    0.94850    0.48275    1.000
    C101     C        0.13818    0.10920    0.52518    1.000
    C102     C        0.31271    0.79390    0.72927    1.000
    H43      H        0.30750    0.71640    0.71940    1.000
    C103     C        0.33942    0.93950    0.80455    1.000
    C104     C        0.22892    0.24360    0.57115    1.000
    H44      H        0.21020    0.30000    0.54330    1.000
    C105     C        0.28628    0.26510    0.61312    1.000
    H45      H        0.30830    0.33630    0.61350    1.000
    Tb6      Tb       0.66924    0.16916    0.52574    1.000
    O41      O        0.69979    0.34261    0.48529    1.000
    O42      O        0.82204    0.36463    0.58051    1.000
    O43      O        0.75732    0.49788    0.47566    1.000
    O44      O        0.73303    0.26461    0.60795    1.000
    C106     C        0.83592    0.32560    0.78891    1.000
    H46      H        0.84950    0.27010    0.81920    1.000
    O45      O        0.44772    0.78004    0.52231    1.000
    O46      O        0.41400    0.71778    0.42966    1.000
    C107     C        0.78152    0.33253    0.61808    1.000
    O47      O        0.90460    0.40929    0.90202    1.000
    C108     C        0.81145    0.68282    0.65434    1.000
    H47      H        0.85070    0.69620    0.68340    1.000
    C109     C        0.57939    0.67600    0.52238    1.000
    H48      H        0.57750    0.73640    0.55040    1.000
    O48      O        0.84718    0.57040    0.88575    1.000
    C110     C        0.69927    0.63640    0.57082    1.000
    C111     C        0.79920    0.48910    0.69832    1.000
    C112     C        0.79680    0.37470    0.68303    1.000
    C113     C        0.52289    0.65350    0.47782    1.000
    N6       N        0.72304    0.55490    0.61046    1.000
    C114     C        0.63867    0.51760    0.48530    1.000
    C115     C        0.77711    0.57790    0.65209    1.000
    C116     C        0.45822    0.72210    0.47643    1.000
    C117     C        0.58213    0.49550    0.44178    1.000
    H49      H        0.58290    0.43290    0.41500    1.000
    C118     C        0.52475    0.56470    0.43756    1.000
    H50      H        0.48690    0.55100    0.40700    1.000
    C119     C        0.86511    0.47580    0.86897    1.000
    C120     C        0.81953    0.51920    0.75979    1.000
    H51      H        0.81970    0.59630    0.77100    1.000
    C121     C        0.70234    0.44850    0.48275    1.000
    C122     C        0.63818    0.60920    0.52518    1.000
    C123     C        0.81271    0.29390    0.72927    1.000
    H52      H        0.80750    0.21640    0.71940    1.000
    C124     C        0.83942    0.43950    0.80455    1.000
    C125     C        0.72892    0.74360    0.57115    1.000
    H53      H        0.71020    0.80000    0.54330    1.000
    C126     C        0.78628    0.76510    0.61312    1.000
    H54      H        0.80830    0.83630    0.61350    1.000
    Tb7      Tb       0.83076    0.66916    0.97426    1.000
    O49      O        0.80021    0.84261    0.01471    1.000
    O50      O        0.67796    0.86463    0.91949    1.000
    O51      O        0.74268    0.99788    0.02434    1.000
    O52      O        0.76697    0.76461    0.89205    1.000
    C127     C        0.66408    0.82560    0.71109    1.000
    H55      H        0.65050    0.77010    0.68080    1.000
    O53      O        0.05228    0.28004    0.97769    1.000
    O54      O        0.08600    0.21778    0.07034    1.000
    C128     C        0.71848    0.83253    0.88192    1.000
    O55      O        0.59540    0.90929    0.59798    1.000
    C129     C        0.68855    0.18282    0.84566    1.000
    H56      H        0.64930    0.19620    0.81660    1.000
    C130     C        0.92061    0.17600    0.97762    1.000
    H57      H        0.92250    0.23640    0.94960    1.000
    O56      O        0.65282    0.07040    0.61425    1.000
    C131     C        0.80073    0.13640    0.92918    1.000
    C132     C        0.70080    0.98910    0.80168    1.000
    C133     C        0.70320    0.87470    0.81697    1.000
    C134     C        0.97711    0.15350    0.02218    1.000
    N7       N        0.77696    0.05490    0.88954    1.000
    C135     C        0.86133    0.01760    0.01470    1.000
    C136     C        0.72289    0.07790    0.84791    1.000
    C137     C        0.04178    0.22210    0.02357    1.000
    C138     C        0.91787    0.99550    0.05822    1.000
    H58      H        0.91710    0.93290    0.08500    1.000
    C139     C        0.97525    0.06470    0.06244    1.000
    H59      H        0.01310    0.05100    0.09300    1.000
    C140     C        0.63489    0.97580    0.63103    1.000
    C141     C        0.68047    0.01920    0.74021    1.000
    H60      H        0.68030    0.09630    0.72900    1.000
    C142     C        0.79766    0.94850    0.01725    1.000
    C143     C        0.86182    0.10920    0.97482    1.000
    C144     C        0.68729    0.79390    0.77073    1.000
    H61      H        0.69250    0.71640    0.78060    1.000
    C145     C        0.66058    0.93950    0.69545    1.000
    C146     C        0.77108    0.24360    0.92885    1.000
    H62      H        0.78980    0.30000    0.95670    1.000
    C147     C        0.71372    0.26510    0.88688    1.000
    H63      H        0.69170    0.33630    0.88650    1.000
    Tb8      Tb       0.33076    0.16916    0.97426    1.000
    O57      O        0.30021    0.34261    0.01471    1.000
    O58      O        0.17796    0.36463    0.91949    1.000
    O59      O        0.24268    0.49788    0.02434    1.000
    O60      O        0.26697    0.26461    0.89205    1.000
    C148     C        0.16408    0.32560    0.71109    1.000
    H64      H        0.15050    0.27010    0.68080    1.000
    O61      O        0.55228    0.78004    0.97769    1.000
    O62      O        0.58600    0.71778    0.07034    1.000
    C149     C        0.21848    0.33253    0.88192    1.000
    O63      O        0.09540    0.40929    0.59798    1.000
    C150     C        0.18855    0.68282    0.84566    1.000
    H65      H        0.14930    0.69620    0.81660    1.000
    C151     C        0.42061    0.67600    0.97762    1.000
    H66      H        0.42250    0.73640    0.94960    1.000
    O64      O        0.15282    0.57040    0.61425    1.000
    C152     C        0.30073    0.63640    0.92918    1.000
    C153     C        0.20080    0.48910    0.80168    1.000
    C154     C        0.20320    0.37470    0.81697    1.000
    C155     C        0.47711    0.65350    0.02218    1.000
    N8       N        0.27696    0.55490    0.88954    1.000
    C156     C        0.36133    0.51760    0.01470    1.000
    C157     C        0.22289    0.57790    0.84791    1.000
    C158     C        0.54178    0.72210    0.02357    1.000
    C159     C        0.41787    0.49550    0.05822    1.000
    H67      H        0.41710    0.43290    0.08500    1.000
    C160     C        0.47525    0.56470    0.06244    1.000
    H68      H        0.51310    0.55100    0.09300    1.000
    C161     C        0.13489    0.47580    0.63103    1.000
    C162     C        0.18047    0.51920    0.74021    1.000
    H69      H        0.18030    0.59630    0.72900    1.000
    C163     C        0.29766    0.44850    0.01725    1.000
    C164     C        0.36182    0.60920    0.97482    1.000
    C165     C        0.18729    0.29390    0.77073    1.000
    H70      H        0.19250    0.21640    0.78060    1.000
    C166     C        0.16058    0.43950    0.69545    1.000
    C167     C        0.27108    0.74360    0.92885    1.000
    H71      H        0.28980    0.80000    0.95670    1.000
    C168     C        0.21372    0.76510    0.88688    1.000
    H72      H        0.19170    0.83630    0.88650    1.000
