# CIF file generated by openbabel 3.1.0, see https://openbabel.org
data_I
_chemical_name_common 'image0'
_cell_length_a 18.3559
_cell_length_b 26.314
_cell_length_c 42.406
_cell_angle_alpha 90
_cell_angle_beta 90
_cell_angle_gamma 90
_space_group_name_H-M_alt 'P 1'
_space_group_name_Hall 'P 1'
loop_
    _symmetry_equiv_pos_as_xyz
    x,y,z
loop_
    _atom_site_label
    _atom_site_type_symbol
    _atom_site_fract_x
    _atom_site_fract_y
    _atom_site_fract_z
    _atom_site_occupancy
    C1       C        0.75240    0.12260    0.30290    1.000
    C2       C        0.75110    0.17480    0.28730    1.000
    C3       C        0.68490    0.19800    0.28040    1.000
    C4       C        0.74900    0.27200    0.26150    1.000
    C5       C        0.81600    0.20030    0.28130    1.000
    O1       O        0.81640    0.10950    0.31640    1.000
    C6       C        0.75680    0.41350    0.21670    1.000
    C7       C        0.68940    0.39150    0.22280    1.000
    C8       C        0.74900    0.31890    0.24570    1.000
    C9       C        0.82040    0.38810    0.22510    1.000
    C10      C        0.52600    0.04330    0.30880    1.000
    C11      C        0.43880    0.04650    0.30750    1.000
    C12      C        0.39810    0.04120    0.33490    1.000
    C13      C        0.32260    0.03750    0.33330    1.000
    C14      C        0.28790    0.03920    0.30420    1.000
    C15      C        0.32860    0.04450    0.27670    1.000
    C16      C        0.40410    0.04810    0.27840    1.000
    O2       O        0.56020    0.05150    0.28090    1.000
    C17      C        0.97260    0.04170    0.31600    1.000
    C18      C        0.05770    0.03550    0.31160    1.000
    C19      C        0.10180    0.03140    0.33810    1.000
    C20      C        0.17720    0.03290    0.33490    1.000
    C21      C        0.20840    0.03850    0.30530    1.000
    C22      C        0.16420    0.04270    0.27880    1.000
    C23      C        0.08890    0.04120    0.28190    1.000
    O3       O        0.95340    0.04930    0.34560    1.000
    O4       O        0.93360    0.03860    0.28960    1.000
    C24      C        0.74950    0.03000    0.38310    1.000
    C25      C        0.75150    0.01990    0.41860    1.000
    C26      C        0.81390    0.03020    0.43600    1.000
    C27      C        0.81500    0.02090    0.46830    1.000
    C28      C        0.75360    0.00130    0.48310    1.000
    C29      C        0.69110    0.99110    0.46570    1.000
    C30      C        0.69010    0.00040    0.43340    1.000
    Zn1      Zn       0.84400    0.04120    0.32649    1.000
    C31      C        0.24880    0.08900    0.37710    1.000
    C32      C        0.19840    0.09530    0.40120    1.000
    C33      C        0.18430    0.14350    0.41310    1.000
    C34      C        0.22100    0.18550    0.40080    1.000
    C35      C        0.27100    0.17920    0.37670    1.000
    C36      C        0.28510    0.13090    0.36480    1.000
    O5       O        0.68460    0.02060    0.36990    1.000
    N1       N        0.17250    0.00430    0.40590    1.000
    C37      C        0.15990    0.05330    0.41690    1.000
    C38      C        0.10800    0.06170    0.44010    1.000
    C39      C        0.06790    0.02100    0.45210    1.000
    C40      C        0.08000    0.97220    0.44110    1.000
    C41      C        0.13300    0.96380    0.41800    1.000
    O6       O        0.81160    0.04640    0.36960    1.000
    N2       N        0.27900    0.95280    0.38020    1.000
    C42      C        0.33300    0.94940    0.40300    1.000
    C43      C        0.36800    0.90300    0.40860    1.000
    C44      C        0.34800    0.86040    0.39130    1.000
    C45      C        0.29400    0.86380    0.36850    1.000
    C46      C        0.25900    0.91000    0.36300    1.000
    C47      C        0.32700    0.04200    0.41080    1.000
    C48      C        0.36100    0.99640    0.41790    1.000
    C49      C        0.41600    0.99500    0.44030    1.000
    C50      C        0.43700    0.03900    0.45560    1.000
    C51      C        0.40300    0.08500    0.44860    1.000
    C52      C        0.34800    0.08640    0.42620    1.000
    Ir1      Ir       0.24830    0.02460    0.37348    1.000
    Zn2      Zn       0.65490    0.04096    0.32607    1.000
    C53      C        0.75840    0.46470    0.19940    1.000
    O7       O        0.69160    0.09630    0.30150    1.000
    O8       O        0.69290    0.48710    0.20300    1.000
    O9       O        0.82100    0.47650    0.18440    1.000
    O10      O        0.55200    0.03280    0.33720    1.000
    C54      C        0.68360    0.24650    0.26750    1.000
    C55      C        0.81470    0.24880    0.26840    1.000
    C56      C        0.68560    0.34420    0.23730    1.000
    C57      C        0.81660    0.34080    0.23960    1.000
    Ir2      Ir       0.60340    0.28900    0.25250    1.000
    Ir3      Ir       0.89600    0.29380    0.25380    1.000
    C58      C        0.97300    0.24040    0.26580    1.000
    C59      C        0.00900    0.26360    0.29090    1.000
    C60      C        0.06500    0.23800    0.30650    1.000
    C61      C        0.08500    0.19000    0.29700    1.000
    C62      C        0.05000    0.16680    0.27180    1.000
    C63      C        0.99400    0.19200    0.25620    1.000
    N3       N        0.93500    0.34300    0.28670    1.000
    C64      C        0.99100    0.31570    0.30090    1.000
    C65      C        0.02700    0.33600    0.32680    1.000
    C66      C        0.00800    0.38300    0.33840    1.000
    C67      C        0.95200    0.41100    0.32410    1.000
    C68      C        0.91500    0.39000    0.29820    1.000
    C69      C        0.10400    0.23900    0.27920    1.000
    C70      C        0.05500    0.26050    0.30060    1.000
    C71      C        0.04200    0.23600    0.32900    1.000
    C72      C        0.07600    0.19100    0.33610    1.000
    C73      C        0.12500    0.17000    0.31500    1.000
    C74      C        0.13900    0.19400    0.28620    1.000
    N4       N        0.02600    0.33300    0.26480    1.000
    C75      C        0.01600    0.30780    0.29330    1.000
    C76      C        0.97100    0.32900    0.31630    1.000
    C77      C        0.93600    0.37500    0.31080    1.000
    C78      C        0.94600    0.40000    0.28220    1.000
    C79      C        0.99100    0.37900    0.25920    1.000
    C80      C        0.58000    0.34180    0.29170    1.000
    C81      C        0.53400    0.38100    0.28230    1.000
    C82      C        0.51400    0.41900    0.30350    1.000
    C83      C        0.54100    0.41800    0.33410    1.000
    C84      C        0.58800    0.37900    0.34350    1.000
    C85      C        0.60700    0.34100    0.32230    1.000
    N5       N        0.52700    0.34090    0.23110    1.000
    C86      C        0.50400    0.38000    0.24980    1.000
    C87      C        0.46300    0.41900    0.24050    1.000
    C88      C        0.43700    0.41800    0.20960    1.000
    C89      C        0.45700    0.37900    0.18950    1.000
    C90      C        0.50200    0.34000    0.20030    1.000
    N6       N        0.51900    0.24700    0.27170    1.000
    C91      C        0.44900    0.17260    0.25830    1.000
    C92      C        0.41000    0.17700    0.28620    1.000
    C93      C        0.42600    0.21700    0.30690    1.000
    C94      C        0.48000    0.25200    0.29970    1.000
    C95      C        0.60000    0.23940    0.21670    1.000
    C96      C        0.54600    0.20300    0.22160    1.000
    C97      C        0.53500    0.16500    0.19940    1.000
    C98      C        0.57700    0.16300    0.17220    1.000
    C99      C        0.63100    0.20000    0.16730    1.000
    C100     C        0.64200    0.23800    0.18950    1.000
    N7       N        0.32260    0.96250    0.66670    1.000
    N8       N        0.17720    0.96710    0.66510    1.000
    C101     C        0.25240    0.62260    0.30290    1.000
    C102     C        0.25110    0.67480    0.28730    1.000
    C103     C        0.18490    0.69800    0.28040    1.000
    C104     C        0.24900    0.77200    0.26150    1.000
    C105     C        0.31600    0.70030    0.28130    1.000
    O11      O        0.31640    0.60950    0.31640    1.000
    C106     C        0.25680    0.91350    0.21670    1.000
    C107     C        0.18940    0.89150    0.22280    1.000
    C108     C        0.24900    0.81890    0.24570    1.000
    C109     C        0.32040    0.88810    0.22510    1.000
    C110     C        0.02600    0.54330    0.30880    1.000
    C111     C        0.93880    0.54650    0.30750    1.000
    C112     C        0.89810    0.54120    0.33490    1.000
    C113     C        0.82260    0.53750    0.33330    1.000
    C114     C        0.78790    0.53920    0.30420    1.000
    C115     C        0.82860    0.54450    0.27670    1.000
    C116     C        0.90410    0.54810    0.27840    1.000
    O12      O        0.06020    0.55150    0.28090    1.000
    C117     C        0.47260    0.54170    0.31600    1.000
    C118     C        0.55770    0.53550    0.31160    1.000
    C119     C        0.60180    0.53140    0.33810    1.000
    C120     C        0.67720    0.53290    0.33490    1.000
    C121     C        0.70840    0.53850    0.30530    1.000
    C122     C        0.66420    0.54270    0.27880    1.000
    C123     C        0.58890    0.54120    0.28190    1.000
    O13      O        0.45340    0.54930    0.34560    1.000
    O14      O        0.43360    0.53860    0.28960    1.000
    C124     C        0.24950    0.53000    0.38310    1.000
    C125     C        0.25150    0.51990    0.41860    1.000
    C126     C        0.31390    0.53020    0.43600    1.000
    C127     C        0.31500    0.52090    0.46830    1.000
    C128     C        0.25360    0.50130    0.48310    1.000
    C129     C        0.19110    0.49110    0.46570    1.000
    C130     C        0.19010    0.50040    0.43340    1.000
    Zn3      Zn       0.34400    0.54120    0.32649    1.000
    C131     C        0.74880    0.58900    0.37710    1.000
    C132     C        0.69840    0.59530    0.40120    1.000
    C133     C        0.68430    0.64350    0.41310    1.000
    C134     C        0.72100    0.68550    0.40080    1.000
    C135     C        0.77100    0.67920    0.37670    1.000
    C136     C        0.78510    0.63090    0.36480    1.000
    O15      O        0.18460    0.52060    0.36990    1.000
    N9       N        0.67250    0.50430    0.40590    1.000
    C137     C        0.65990    0.55330    0.41690    1.000
    C138     C        0.60800    0.56170    0.44010    1.000
    C139     C        0.56790    0.52100    0.45210    1.000
    C140     C        0.58000    0.47220    0.44110    1.000
    C141     C        0.63300    0.46380    0.41800    1.000
    O16      O        0.31160    0.54640    0.36960    1.000
    N10      N        0.77900    0.45280    0.38020    1.000
    C142     C        0.83300    0.44940    0.40300    1.000
    C143     C        0.86800    0.40300    0.40860    1.000
    C144     C        0.84800    0.36040    0.39130    1.000
    C145     C        0.79400    0.36380    0.36850    1.000
    C146     C        0.75900    0.41000    0.36300    1.000
    C147     C        0.82700    0.54200    0.41080    1.000
    C148     C        0.86100    0.49640    0.41790    1.000
    C149     C        0.91600    0.49500    0.44030    1.000
    C150     C        0.93700    0.53900    0.45560    1.000
    C151     C        0.90300    0.58500    0.44860    1.000
    C152     C        0.84800    0.58640    0.42620    1.000
    Ir4      Ir       0.74830    0.52460    0.37348    1.000
    Zn4      Zn       0.15490    0.54096    0.32607    1.000
    C153     C        0.25840    0.96470    0.19940    1.000
    O17      O        0.19160    0.59630    0.30150    1.000
    O18      O        0.19290    0.98710    0.20300    1.000
    O19      O        0.32100    0.97650    0.18440    1.000
    O20      O        0.05200    0.53280    0.33720    1.000
    C154     C        0.18360    0.74650    0.26750    1.000
    C155     C        0.31470    0.74880    0.26840    1.000
    C156     C        0.18560    0.84420    0.23730    1.000
    C157     C        0.31660    0.84080    0.23960    1.000
    Ir5      Ir       0.10340    0.78900    0.25250    1.000
    Ir6      Ir       0.39600    0.79380    0.25380    1.000
    C158     C        0.47300    0.74040    0.26580    1.000
    C159     C        0.50900    0.76360    0.29090    1.000
    C160     C        0.56500    0.73800    0.30650    1.000
    C161     C        0.58500    0.69000    0.29700    1.000
    C162     C        0.55000    0.66680    0.27180    1.000
    C163     C        0.49400    0.69200    0.25620    1.000
    N11      N        0.43500    0.84300    0.28670    1.000
    C164     C        0.49100    0.81570    0.30090    1.000
    C165     C        0.52700    0.83600    0.32680    1.000
    C166     C        0.50800    0.88300    0.33840    1.000
    C167     C        0.45200    0.91100    0.32410    1.000
    C168     C        0.41500    0.89000    0.29820    1.000
    C169     C        0.60400    0.73900    0.27920    1.000
    C170     C        0.55500    0.76050    0.30060    1.000
    C171     C        0.54200    0.73600    0.32900    1.000
    C172     C        0.57600    0.69100    0.33610    1.000
    C173     C        0.62500    0.67000    0.31500    1.000
    C174     C        0.63900    0.69400    0.28620    1.000
    N12      N        0.52600    0.83300    0.26480    1.000
    C175     C        0.51600    0.80780    0.29330    1.000
    C176     C        0.47100    0.82900    0.31630    1.000
    C177     C        0.43600    0.87500    0.31080    1.000
    C178     C        0.44600    0.90000    0.28220    1.000
    C179     C        0.49100    0.87900    0.25920    1.000
    C180     C        0.08000    0.84180    0.29170    1.000
    C181     C        0.03400    0.88100    0.28230    1.000
    C182     C        0.01400    0.91900    0.30350    1.000
    C183     C        0.04100    0.91800    0.33410    1.000
    C184     C        0.08800    0.87900    0.34350    1.000
    C185     C        0.10700    0.84100    0.32230    1.000
    N13      N        0.02700    0.84090    0.23110    1.000
    C186     C        0.00400    0.88000    0.24980    1.000
    C187     C        0.96300    0.91900    0.24050    1.000
    C188     C        0.93700    0.91800    0.20960    1.000
    C189     C        0.95700    0.87900    0.18950    1.000
    C190     C        0.00200    0.84000    0.20030    1.000
    N14      N        0.01900    0.74700    0.27170    1.000
    C191     C        0.94900    0.67260    0.25830    1.000
    C192     C        0.91000    0.67700    0.28620    1.000
    C193     C        0.92600    0.71700    0.30690    1.000
    C194     C        0.98000    0.75200    0.29970    1.000
    C195     C        0.10000    0.73940    0.21670    1.000
    C196     C        0.04600    0.70300    0.22160    1.000
    C197     C        0.03500    0.66500    0.19940    1.000
    C198     C        0.07700    0.66300    0.17220    1.000
    C199     C        0.13100    0.70000    0.16730    1.000
    C200     C        0.14200    0.73800    0.18950    1.000
    N15      N        0.82260    0.46250    0.66670    1.000
    N16      N        0.67720    0.46710    0.66510    1.000
    C201     C        0.24760    0.87740    0.80290    1.000
    C202     C        0.24890    0.82520    0.78730    1.000
    C203     C        0.31510    0.80200    0.78040    1.000
    C204     C        0.25100    0.72800    0.76150    1.000
    C205     C        0.18400    0.79970    0.78130    1.000
    O21      O        0.18360    0.89050    0.81640    1.000
    C206     C        0.24320    0.58650    0.71670    1.000
    C207     C        0.31060    0.60850    0.72280    1.000
    C208     C        0.25100    0.68110    0.74570    1.000
    C209     C        0.17960    0.61190    0.72510    1.000
    C210     C        0.47400    0.95670    0.80880    1.000
    C211     C        0.56120    0.95350    0.80750    1.000
    C212     C        0.60190    0.95880    0.83490    1.000
    C213     C        0.67740    0.96250    0.83330    1.000
    C214     C        0.71210    0.96080    0.80420    1.000
    C215     C        0.67140    0.95550    0.77670    1.000
    C216     C        0.59590    0.95190    0.77840    1.000
    O22      O        0.43980    0.94850    0.78090    1.000
    C217     C        0.02740    0.95830    0.81600    1.000
    C218     C        0.94230    0.96450    0.81160    1.000
    C219     C        0.89820    0.96860    0.83810    1.000
    C220     C        0.82280    0.96710    0.83490    1.000
    C221     C        0.79160    0.96150    0.80530    1.000
    C222     C        0.83580    0.95730    0.77880    1.000
    C223     C        0.91110    0.95880    0.78190    1.000
    O23      O        0.04660    0.95070    0.84560    1.000
    O24      O        0.06640    0.96140    0.78960    1.000
    C224     C        0.25050    0.97000    0.88310    1.000
    C225     C        0.24850    0.98010    0.91860    1.000
    C226     C        0.18610    0.96980    0.93600    1.000
    C227     C        0.18500    0.97910    0.96830    1.000
    C228     C        0.24640    0.99870    0.98310    1.000
    C229     C        0.30890    0.00890    0.96570    1.000
    C230     C        0.30990    0.99960    0.93340    1.000
    Zn5      Zn       0.15600    0.95880    0.82649    1.000
    C231     C        0.75120    0.91100    0.87710    1.000
    C232     C        0.80160    0.90470    0.90120    1.000
    C233     C        0.81570    0.85650    0.91310    1.000
    C234     C        0.77900    0.81450    0.90080    1.000
    C235     C        0.72900    0.82080    0.87670    1.000
    C236     C        0.71490    0.86910    0.86480    1.000
    O25      O        0.31540    0.97940    0.86990    1.000
    N17      N        0.82750    0.99570    0.90590    1.000
    C237     C        0.84010    0.94670    0.91690    1.000
    C238     C        0.89200    0.93830    0.94010    1.000
    C239     C        0.93210    0.97900    0.95210    1.000
    C240     C        0.92000    0.02780    0.94110    1.000
    C241     C        0.86700    0.03620    0.91800    1.000
    O26      O        0.18840    0.95360    0.86960    1.000
    N18      N        0.72100    0.04720    0.88020    1.000
    C242     C        0.66700    0.05060    0.90300    1.000
    C243     C        0.63200    0.09700    0.90860    1.000
    C244     C        0.65200    0.13960    0.89130    1.000
    C245     C        0.70600    0.13620    0.86850    1.000
    C246     C        0.74100    0.09000    0.86300    1.000
    C247     C        0.67300    0.95800    0.91080    1.000
    C248     C        0.63900    0.00360    0.91790    1.000
    C249     C        0.58400    0.00500    0.94030    1.000
    C250     C        0.56300    0.96100    0.95560    1.000
    C251     C        0.59700    0.91500    0.94860    1.000
    C252     C        0.65200    0.91360    0.92620    1.000
    Ir7      Ir       0.75170    0.97540    0.87348    1.000
    Zn6      Zn       0.34510    0.95904    0.82607    1.000
    C253     C        0.24160    0.53530    0.69940    1.000
    O27      O        0.30840    0.90370    0.80150    1.000
    O28      O        0.30710    0.51290    0.70300    1.000
    O29      O        0.17900    0.52350    0.68440    1.000
    O30      O        0.44800    0.96720    0.83720    1.000
    C254     C        0.31640    0.75350    0.76750    1.000
    C255     C        0.18530    0.75120    0.76840    1.000
    C256     C        0.31440    0.65580    0.73730    1.000
    C257     C        0.18340    0.65920    0.73960    1.000
    Ir8      Ir       0.39660    0.71100    0.75250    1.000
    Ir9      Ir       0.10400    0.70620    0.75380    1.000
    C258     C        0.02700    0.75960    0.76580    1.000
    C259     C        0.99100    0.73640    0.79090    1.000
    C260     C        0.93500    0.76200    0.80650    1.000
    C261     C        0.91500    0.81000    0.79700    1.000
    C262     C        0.95000    0.83320    0.77180    1.000
    C263     C        0.00600    0.80800    0.75620    1.000
    N19      N        0.06500    0.65700    0.78670    1.000
    C264     C        0.00900    0.68430    0.80090    1.000
    C265     C        0.97300    0.66400    0.82680    1.000
    C266     C        0.99200    0.61700    0.83840    1.000
    C267     C        0.04800    0.58900    0.82410    1.000
    C268     C        0.08500    0.61000    0.79820    1.000
    C269     C        0.89600    0.76100    0.77920    1.000
    C270     C        0.94500    0.73950    0.80060    1.000
    C271     C        0.95800    0.76400    0.82900    1.000
    C272     C        0.92400    0.80900    0.83610    1.000
    C273     C        0.87500    0.83000    0.81500    1.000
    C274     C        0.86100    0.80600    0.78620    1.000
    N20      N        0.97400    0.66700    0.76480    1.000
    C275     C        0.98400    0.69220    0.79330    1.000
    C276     C        0.02900    0.67100    0.81630    1.000
    C277     C        0.06400    0.62500    0.81080    1.000
    C278     C        0.05400    0.60000    0.78220    1.000
    C279     C        0.00900    0.62100    0.75920    1.000
    C280     C        0.42000    0.65820    0.79170    1.000
    C281     C        0.46600    0.61900    0.78230    1.000
    C282     C        0.48600    0.58100    0.80350    1.000
    C283     C        0.45900    0.58200    0.83410    1.000
    C284     C        0.41200    0.62100    0.84350    1.000
    C285     C        0.39300    0.65900    0.82230    1.000
    N21      N        0.47300    0.65910    0.73110    1.000
    C286     C        0.49600    0.62000    0.74980    1.000
    C287     C        0.53700    0.58100    0.74050    1.000
    C288     C        0.56300    0.58200    0.70960    1.000
    C289     C        0.54300    0.62100    0.68950    1.000
    C290     C        0.49800    0.66000    0.70030    1.000
    N22      N        0.48100    0.75300    0.77170    1.000
    C291     C        0.55100    0.82740    0.75830    1.000
    C292     C        0.59000    0.82300    0.78620    1.000
    C293     C        0.57400    0.78300    0.80690    1.000
    C294     C        0.52000    0.74800    0.79970    1.000
    C295     C        0.40000    0.76060    0.71670    1.000
    C296     C        0.45400    0.79700    0.72160    1.000
    C297     C        0.46500    0.83500    0.69940    1.000
    C298     C        0.42300    0.83700    0.67220    1.000
    C299     C        0.36900    0.80000    0.66730    1.000
    C300     C        0.35800    0.76200    0.68950    1.000
    N23      N        0.67740    0.03750    0.16670    1.000
    N24      N        0.82280    0.03290    0.16510    1.000
    C301     C        0.74760    0.37740    0.80290    1.000
    C302     C        0.74890    0.32520    0.78730    1.000
    C303     C        0.81510    0.30200    0.78040    1.000
    C304     C        0.75100    0.22800    0.76150    1.000
    C305     C        0.68400    0.29970    0.78130    1.000
    O31      O        0.68360    0.39050    0.81640    1.000
    C306     C        0.74320    0.08650    0.71670    1.000
    C307     C        0.81060    0.10850    0.72280    1.000
    C308     C        0.75100    0.18110    0.74570    1.000
    C309     C        0.67960    0.11190    0.72510    1.000
    C310     C        0.97400    0.45670    0.80880    1.000
    C311     C        0.06120    0.45350    0.80750    1.000
    C312     C        0.10190    0.45880    0.83490    1.000
    C313     C        0.17740    0.46250    0.83330    1.000
    C314     C        0.21210    0.46080    0.80420    1.000
    C315     C        0.17140    0.45550    0.77670    1.000
    C316     C        0.09590    0.45190    0.77840    1.000
    O32      O        0.93980    0.44850    0.78090    1.000
    C317     C        0.52740    0.45830    0.81600    1.000
    C318     C        0.44230    0.46450    0.81160    1.000
    C319     C        0.39820    0.46860    0.83810    1.000
    C320     C        0.32280    0.46710    0.83490    1.000
    C321     C        0.29160    0.46150    0.80530    1.000
    C322     C        0.33580    0.45730    0.77880    1.000
    C323     C        0.41110    0.45880    0.78190    1.000
    O33      O        0.54660    0.45070    0.84560    1.000
    O34      O        0.56640    0.46140    0.78960    1.000
    C324     C        0.75050    0.47000    0.88310    1.000
    C325     C        0.74850    0.48010    0.91860    1.000
    C326     C        0.68610    0.46980    0.93600    1.000
    C327     C        0.68500    0.47910    0.96830    1.000
    C328     C        0.74640    0.49870    0.98310    1.000
    C329     C        0.80890    0.50890    0.96570    1.000
    C330     C        0.80990    0.49960    0.93340    1.000
    Zn7      Zn       0.65600    0.45880    0.82649    1.000
    C331     C        0.25120    0.41100    0.87710    1.000
    C332     C        0.30160    0.40470    0.90120    1.000
    C333     C        0.31570    0.35650    0.91310    1.000
    C334     C        0.27900    0.31450    0.90080    1.000
    C335     C        0.22900    0.32080    0.87670    1.000
    C336     C        0.21490    0.36910    0.86480    1.000
    O35      O        0.81540    0.47940    0.86990    1.000
    N25      N        0.32750    0.49570    0.90590    1.000
    C337     C        0.34010    0.44670    0.91690    1.000
    C338     C        0.39200    0.43830    0.94010    1.000
    C339     C        0.43210    0.47900    0.95210    1.000
    C340     C        0.42000    0.52780    0.94110    1.000
    C341     C        0.36700    0.53620    0.91800    1.000
    O36      O        0.68840    0.45360    0.86960    1.000
    N26      N        0.22100    0.54720    0.88020    1.000
    C342     C        0.16700    0.55060    0.90300    1.000
    C343     C        0.13200    0.59700    0.90860    1.000
    C344     C        0.15200    0.63960    0.89130    1.000
    C345     C        0.20600    0.63620    0.86850    1.000
    C346     C        0.24100    0.59000    0.86300    1.000
    C347     C        0.17300    0.45800    0.91080    1.000
    C348     C        0.13900    0.50360    0.91790    1.000
    C349     C        0.08400    0.50500    0.94030    1.000
    C350     C        0.06300    0.46100    0.95560    1.000
    C351     C        0.09700    0.41500    0.94860    1.000
    C352     C        0.15200    0.41360    0.92620    1.000
    Ir10     Ir       0.25170    0.47540    0.87348    1.000
    Zn8      Zn       0.84510    0.45904    0.82607    1.000
    C353     C        0.74160    0.03530    0.69940    1.000
    O37      O        0.80840    0.40370    0.80150    1.000
    O38      O        0.80710    0.01290    0.70300    1.000
    O39      O        0.67900    0.02350    0.68440    1.000
    O40      O        0.94800    0.46720    0.83720    1.000
    C354     C        0.81640    0.25350    0.76750    1.000
    C355     C        0.68530    0.25120    0.76840    1.000
    C356     C        0.81440    0.15580    0.73730    1.000
    C357     C        0.68340    0.15920    0.73960    1.000
    Ir11     Ir       0.89660    0.21100    0.75250    1.000
    Ir12     Ir       0.60400    0.20620    0.75380    1.000
    C358     C        0.52700    0.25960    0.76580    1.000
    C359     C        0.49100    0.23640    0.79090    1.000
    C360     C        0.43500    0.26200    0.80650    1.000
    C361     C        0.41500    0.31000    0.79700    1.000
    C362     C        0.45000    0.33320    0.77180    1.000
    C363     C        0.50600    0.30800    0.75620    1.000
    N27      N        0.56500    0.15700    0.78670    1.000
    C364     C        0.50900    0.18430    0.80090    1.000
    C365     C        0.47300    0.16400    0.82680    1.000
    C366     C        0.49200    0.11700    0.83840    1.000
    C367     C        0.54800    0.08900    0.82410    1.000
    C368     C        0.58500    0.11000    0.79820    1.000
    C369     C        0.39600    0.26100    0.77920    1.000
    C370     C        0.44500    0.23950    0.80060    1.000
    C371     C        0.45800    0.26400    0.82900    1.000
    C372     C        0.42400    0.30900    0.83610    1.000
    C373     C        0.37500    0.33000    0.81500    1.000
    C374     C        0.36100    0.30600    0.78620    1.000
    N28      N        0.47400    0.16700    0.76480    1.000
    C375     C        0.48400    0.19220    0.79330    1.000
    C376     C        0.52900    0.17100    0.81630    1.000
    C377     C        0.56400    0.12500    0.81080    1.000
    C378     C        0.55400    0.10000    0.78220    1.000
    C379     C        0.50900    0.12100    0.75920    1.000
    C380     C        0.92000    0.15820    0.79170    1.000
    C381     C        0.96600    0.11900    0.78230    1.000
    C382     C        0.98600    0.08100    0.80350    1.000
    C383     C        0.95900    0.08200    0.83410    1.000
    C384     C        0.91200    0.12100    0.84350    1.000
    C385     C        0.89300    0.15900    0.82230    1.000
    N29      N        0.97300    0.15910    0.73110    1.000
    C386     C        0.99600    0.12000    0.74980    1.000
    C387     C        0.03700    0.08100    0.74050    1.000
    C388     C        0.06300    0.08200    0.70960    1.000
    C389     C        0.04300    0.12100    0.68950    1.000
    C390     C        0.99800    0.16000    0.70030    1.000
    N30      N        0.98100    0.25300    0.77170    1.000
    C391     C        0.05100    0.32740    0.75830    1.000
    C392     C        0.09000    0.32300    0.78620    1.000
    C393     C        0.07400    0.28300    0.80690    1.000
    C394     C        0.02000    0.24800    0.79970    1.000
    C395     C        0.90000    0.26060    0.71670    1.000
    C396     C        0.95400    0.29700    0.72160    1.000
    C397     C        0.96500    0.33500    0.69940    1.000
    C398     C        0.92300    0.33700    0.67220    1.000
    C399     C        0.86900    0.30000    0.66730    1.000
    C400     C        0.85800    0.26200    0.68950    1.000
    N31      N        0.17740    0.53750    0.16670    1.000
    N32      N        0.32280    0.53290    0.16510    1.000
    C401     C        0.24760    0.12260    0.19710    1.000
    C402     C        0.24890    0.17480    0.21270    1.000
    C403     C        0.31510    0.19800    0.21960    1.000
    C404     C        0.25100    0.27200    0.23850    1.000
    C405     C        0.18400    0.20030    0.21870    1.000
    O41      O        0.18360    0.10950    0.18360    1.000
    C406     C        0.24320    0.41350    0.28330    1.000
    C407     C        0.31060    0.39150    0.27720    1.000
    C408     C        0.25100    0.31890    0.25430    1.000
    C409     C        0.17960    0.38810    0.27490    1.000
    C410     C        0.47400    0.04330    0.19120    1.000
    C411     C        0.56120    0.04650    0.19250    1.000
    C412     C        0.60190    0.04120    0.16510    1.000
    C413     C        0.71210    0.03920    0.19580    1.000
    C414     C        0.67140    0.04450    0.22330    1.000
    C415     C        0.59590    0.04810    0.22160    1.000
    O42      O        0.43980    0.05150    0.21910    1.000
    C416     C        0.02740    0.04170    0.18400    1.000
    C417     C        0.94230    0.03550    0.18840    1.000
    C418     C        0.89820    0.03140    0.16190    1.000
    C419     C        0.79160    0.03850    0.19470    1.000
    C420     C        0.83580    0.04270    0.22120    1.000
    C421     C        0.91110    0.04120    0.21810    1.000
    O43      O        0.04660    0.04930    0.15440    1.000
    O44      O        0.06640    0.03860    0.21040    1.000
    C422     C        0.25050    0.03000    0.11690    1.000
    C423     C        0.24850    0.01990    0.08140    1.000
    C424     C        0.18610    0.03020    0.06400    1.000
    C425     C        0.18500    0.02090    0.03170    1.000
    C426     C        0.24640    0.00130    0.01690    1.000
    C427     C        0.30890    0.99110    0.03430    1.000
    C428     C        0.30990    0.00040    0.06660    1.000
    Zn9      Zn       0.15600    0.04120    0.17351    1.000
    C429     C        0.75120    0.08900    0.12290    1.000
    C430     C        0.80160    0.09530    0.09880    1.000
    C431     C        0.81570    0.14350    0.08690    1.000
    C432     C        0.77900    0.18550    0.09920    1.000
    C433     C        0.72900    0.17920    0.12330    1.000
    C434     C        0.71490    0.13090    0.13520    1.000
    O45      O        0.31540    0.02060    0.13010    1.000
    N33      N        0.82750    0.00430    0.09410    1.000
    C435     C        0.84010    0.05330    0.08310    1.000
    C436     C        0.89200    0.06170    0.05990    1.000
    C437     C        0.93210    0.02100    0.04790    1.000
    C438     C        0.92000    0.97220    0.05890    1.000
    C439     C        0.86700    0.96380    0.08200    1.000
    O46      O        0.18840    0.04640    0.13040    1.000
    N34      N        0.72100    0.95280    0.11980    1.000
    C440     C        0.66700    0.94940    0.09700    1.000
    C441     C        0.63200    0.90300    0.09140    1.000
    C442     C        0.65200    0.86040    0.10870    1.000
    C443     C        0.70600    0.86380    0.13150    1.000
    C444     C        0.74100    0.91000    0.13700    1.000
    C445     C        0.67300    0.04200    0.08920    1.000
    C446     C        0.63900    0.99640    0.08210    1.000
    C447     C        0.58400    0.99500    0.05970    1.000
    C448     C        0.56300    0.03900    0.04440    1.000
    C449     C        0.59700    0.08500    0.05140    1.000
    C450     C        0.65200    0.08640    0.07380    1.000
    Ir13     Ir       0.75170    0.02460    0.12652    1.000
    Zn10     Zn       0.34510    0.04096    0.17393    1.000
    C451     C        0.24160    0.46470    0.30060    1.000
    O47      O        0.30840    0.09630    0.19850    1.000
    O48      O        0.30710    0.48710    0.29700    1.000
    O49      O        0.17900    0.47650    0.31560    1.000
    O50      O        0.44800    0.03280    0.16280    1.000
    C452     C        0.31640    0.24650    0.23250    1.000
    C453     C        0.18530    0.24880    0.23160    1.000
    C454     C        0.31440    0.34420    0.26270    1.000
    C455     C        0.18340    0.34080    0.26040    1.000
    Ir14     Ir       0.39660    0.28900    0.24750    1.000
    Ir15     Ir       0.10400    0.29380    0.24620    1.000
    C456     C        0.02700    0.24040    0.23420    1.000
    C457     C        0.99100    0.26360    0.20910    1.000
    C458     C        0.93500    0.23800    0.19350    1.000
    C459     C        0.91500    0.19000    0.20300    1.000
    C460     C        0.95000    0.16680    0.22820    1.000
    C461     C        0.00600    0.19200    0.24380    1.000
    N35      N        0.06500    0.34300    0.21330    1.000
    C462     C        0.00900    0.31570    0.19910    1.000
    C463     C        0.97300    0.33600    0.17320    1.000
    C464     C        0.99200    0.38300    0.16160    1.000
    C465     C        0.04800    0.41100    0.17590    1.000
    C466     C        0.08500    0.39000    0.20180    1.000
    C467     C        0.89600    0.23900    0.22080    1.000
    C468     C        0.94500    0.26050    0.19940    1.000
    C469     C        0.95800    0.23600    0.17100    1.000
    C470     C        0.92400    0.19100    0.16390    1.000
    C471     C        0.87500    0.17000    0.18500    1.000
    C472     C        0.86100    0.19400    0.21380    1.000
    N36      N        0.97400    0.33300    0.23520    1.000
    C473     C        0.98400    0.30780    0.20670    1.000
    C474     C        0.02900    0.32900    0.18370    1.000
    C475     C        0.06400    0.37500    0.18920    1.000
    C476     C        0.05400    0.40000    0.21780    1.000
    C477     C        0.00900    0.37900    0.24080    1.000
    C478     C        0.42000    0.34180    0.20830    1.000
    C479     C        0.46600    0.38100    0.21770    1.000
    C480     C        0.48600    0.41900    0.19650    1.000
    C481     C        0.45900    0.41800    0.16590    1.000
    C482     C        0.41200    0.37900    0.15650    1.000
    C483     C        0.39300    0.34100    0.17770    1.000
    N37      N        0.47300    0.34090    0.26890    1.000
    C484     C        0.49600    0.38000    0.25020    1.000
    C485     C        0.53700    0.41900    0.25950    1.000
    C486     C        0.56300    0.41800    0.29040    1.000
    C487     C        0.54300    0.37900    0.31050    1.000
    C488     C        0.49800    0.34000    0.29970    1.000
    N38      N        0.48100    0.24700    0.22830    1.000
    C489     C        0.55100    0.17260    0.24170    1.000
    C490     C        0.59000    0.17700    0.21380    1.000
    C491     C        0.57400    0.21700    0.19310    1.000
    C492     C        0.52000    0.25200    0.20030    1.000
    C493     C        0.40000    0.23940    0.28330    1.000
    C494     C        0.45400    0.20300    0.27840    1.000
    C495     C        0.46500    0.16500    0.30060    1.000
    C496     C        0.42300    0.16300    0.32780    1.000
    C497     C        0.36900    0.20000    0.33270    1.000
    C498     C        0.35800    0.23800    0.31050    1.000
    C499     C        0.74760    0.62260    0.19710    1.000
    C500     C        0.74890    0.67480    0.21270    1.000
    C501     C        0.81510    0.69800    0.21960    1.000
    C502     C        0.75100    0.77200    0.23850    1.000
    C503     C        0.68400    0.70030    0.21870    1.000
    O51      O        0.68360    0.60950    0.18360    1.000
    C504     C        0.74320    0.91350    0.28330    1.000
    C505     C        0.81060    0.89150    0.27720    1.000
    C506     C        0.75100    0.81890    0.25430    1.000
    C507     C        0.67960    0.88810    0.27490    1.000
    C508     C        0.97400    0.54330    0.19120    1.000
    C509     C        0.06120    0.54650    0.19250    1.000
    C510     C        0.10190    0.54120    0.16510    1.000
    C511     C        0.21210    0.53920    0.19580    1.000
    C512     C        0.17140    0.54450    0.22330    1.000
    C513     C        0.09590    0.54810    0.22160    1.000
    O52      O        0.93980    0.55150    0.21910    1.000
    C514     C        0.52740    0.54170    0.18400    1.000
    C515     C        0.44230    0.53550    0.18840    1.000
    C516     C        0.39820    0.53140    0.16190    1.000
    C517     C        0.29160    0.53850    0.19470    1.000
    C518     C        0.33580    0.54270    0.22120    1.000
    C519     C        0.41110    0.54120    0.21810    1.000
    O53      O        0.54660    0.54930    0.15440    1.000
    O54      O        0.56640    0.53860    0.21040    1.000
    C520     C        0.75050    0.53000    0.11690    1.000
    C521     C        0.74850    0.51990    0.08140    1.000
    C522     C        0.68610    0.53020    0.06400    1.000
    C523     C        0.68500    0.52090    0.03170    1.000
    C524     C        0.74640    0.50130    0.01690    1.000
    C525     C        0.80890    0.49110    0.03430    1.000
    C526     C        0.80990    0.50040    0.06660    1.000
    Zn11     Zn       0.65600    0.54120    0.17351    1.000
    C527     C        0.25120    0.58900    0.12290    1.000
    C528     C        0.30160    0.59530    0.09880    1.000
    C529     C        0.31570    0.64350    0.08690    1.000
    C530     C        0.27900    0.68550    0.09920    1.000
    C531     C        0.22900    0.67920    0.12330    1.000
    C532     C        0.21490    0.63090    0.13520    1.000
    O55      O        0.81540    0.52060    0.13010    1.000
    N39      N        0.32750    0.50430    0.09410    1.000
    C533     C        0.34010    0.55330    0.08310    1.000
    C534     C        0.39200    0.56170    0.05990    1.000
    C535     C        0.43210    0.52100    0.04790    1.000
    C536     C        0.42000    0.47220    0.05890    1.000
    C537     C        0.36700    0.46380    0.08200    1.000
    O56      O        0.68840    0.54640    0.13040    1.000
    N40      N        0.22100    0.45280    0.11980    1.000
    C538     C        0.16700    0.44940    0.09700    1.000
    C539     C        0.13200    0.40300    0.09140    1.000
    C540     C        0.15200    0.36040    0.10870    1.000
    C541     C        0.20600    0.36380    0.13150    1.000
    C542     C        0.24100    0.41000    0.13700    1.000
    C543     C        0.17300    0.54200    0.08920    1.000
    C544     C        0.13900    0.49640    0.08210    1.000
    C545     C        0.08400    0.49500    0.05970    1.000
    C546     C        0.06300    0.53900    0.04440    1.000
    C547     C        0.09700    0.58500    0.05140    1.000
    C548     C        0.15200    0.58640    0.07380    1.000
    Ir16     Ir       0.25170    0.52460    0.12652    1.000
    Zn12     Zn       0.84510    0.54096    0.17393    1.000
    C549     C        0.74160    0.96470    0.30060    1.000
    O57      O        0.80840    0.59630    0.19850    1.000
    O58      O        0.80710    0.98710    0.29700    1.000
    O59      O        0.67900    0.97650    0.31560    1.000
    O60      O        0.94800    0.53280    0.16280    1.000
    C550     C        0.81640    0.74650    0.23250    1.000
    C551     C        0.68530    0.74880    0.23160    1.000
    C552     C        0.81440    0.84420    0.26270    1.000
    C553     C        0.68340    0.84080    0.26040    1.000
    Ir17     Ir       0.89660    0.78900    0.24750    1.000
    Ir18     Ir       0.60400    0.79380    0.24620    1.000
    C554     C        0.52700    0.74040    0.23420    1.000
    C555     C        0.49100    0.76360    0.20910    1.000
    C556     C        0.43500    0.73800    0.19350    1.000
    C557     C        0.41500    0.69000    0.20300    1.000
    C558     C        0.45000    0.66680    0.22820    1.000
    C559     C        0.50600    0.69200    0.24380    1.000
    N41      N        0.56500    0.84300    0.21330    1.000
    C560     C        0.50900    0.81570    0.19910    1.000
    C561     C        0.47300    0.83600    0.17320    1.000
    C562     C        0.49200    0.88300    0.16160    1.000
    C563     C        0.54800    0.91100    0.17590    1.000
    C564     C        0.58500    0.89000    0.20180    1.000
    C565     C        0.39600    0.73900    0.22080    1.000
    C566     C        0.44500    0.76050    0.19940    1.000
    C567     C        0.45800    0.73600    0.17100    1.000
    C568     C        0.42400    0.69100    0.16390    1.000
    C569     C        0.37500    0.67000    0.18500    1.000
    C570     C        0.36100    0.69400    0.21380    1.000
    N42      N        0.47400    0.83300    0.23520    1.000
    C571     C        0.48400    0.80780    0.20670    1.000
    C572     C        0.52900    0.82900    0.18370    1.000
    C573     C        0.56400    0.87500    0.18920    1.000
    C574     C        0.55400    0.90000    0.21780    1.000
    C575     C        0.50900    0.87900    0.24080    1.000
    C576     C        0.92000    0.84180    0.20830    1.000
    C577     C        0.96600    0.88100    0.21770    1.000
    C578     C        0.98600    0.91900    0.19650    1.000
    C579     C        0.95900    0.91800    0.16590    1.000
    C580     C        0.91200    0.87900    0.15650    1.000
    C581     C        0.89300    0.84100    0.17770    1.000
    N43      N        0.97300    0.84090    0.26890    1.000
    C582     C        0.99600    0.88000    0.25020    1.000
    C583     C        0.03700    0.91900    0.25950    1.000
    C584     C        0.06300    0.91800    0.29040    1.000
    C585     C        0.04300    0.87900    0.31050    1.000
    C586     C        0.99800    0.84000    0.29970    1.000
    N44      N        0.98100    0.74700    0.22830    1.000
    C587     C        0.05100    0.67260    0.24170    1.000
    C588     C        0.09000    0.67700    0.21380    1.000
    C589     C        0.07400    0.71700    0.19310    1.000
    C590     C        0.02000    0.75200    0.20030    1.000
    C591     C        0.90000    0.73940    0.28330    1.000
    C592     C        0.95400    0.70300    0.27840    1.000
    C593     C        0.96500    0.66500    0.30060    1.000
    C594     C        0.92300    0.66300    0.32780    1.000
    C595     C        0.86900    0.70000    0.33270    1.000
    C596     C        0.85800    0.73800    0.31050    1.000
    C597     C        0.75240    0.87740    0.69710    1.000
    C598     C        0.75110    0.82520    0.71270    1.000
    C599     C        0.68490    0.80200    0.71960    1.000
    C600     C        0.74900    0.72800    0.73850    1.000
    C601     C        0.81600    0.79970    0.71870    1.000
    O61      O        0.81640    0.89050    0.68360    1.000
    C602     C        0.75680    0.58650    0.78330    1.000
    C603     C        0.68940    0.60850    0.77720    1.000
    C604     C        0.74900    0.68110    0.75430    1.000
    C605     C        0.82040    0.61190    0.77490    1.000
    C606     C        0.52600    0.95670    0.69120    1.000
    C607     C        0.43880    0.95350    0.69250    1.000
    C608     C        0.39810    0.95880    0.66510    1.000
    C609     C        0.28790    0.96080    0.69580    1.000
    C610     C        0.32860    0.95550    0.72330    1.000
    C611     C        0.40410    0.95190    0.72160    1.000
    O62      O        0.56020    0.94850    0.71910    1.000
    C612     C        0.97260    0.95830    0.68400    1.000
    C613     C        0.05770    0.96450    0.68840    1.000
    C614     C        0.10180    0.96860    0.66190    1.000
    C615     C        0.20840    0.96150    0.69470    1.000
    C616     C        0.16420    0.95730    0.72120    1.000
    C617     C        0.08890    0.95880    0.71810    1.000
    O63      O        0.95340    0.95070    0.65440    1.000
    O64      O        0.93360    0.96140    0.71040    1.000
    C618     C        0.74950    0.97000    0.61690    1.000
    C619     C        0.75150    0.98010    0.58140    1.000
    C620     C        0.81390    0.96980    0.56400    1.000
    C621     C        0.81500    0.97910    0.53170    1.000
    C622     C        0.75360    0.99870    0.51690    1.000
    C623     C        0.69110    0.00890    0.53430    1.000
    C624     C        0.69010    0.99960    0.56660    1.000
    Zn13     Zn       0.84400    0.95880    0.67351    1.000
    C625     C        0.24880    0.91100    0.62290    1.000
    C626     C        0.19840    0.90470    0.59880    1.000
    C627     C        0.18430    0.85650    0.58690    1.000
    C628     C        0.22100    0.81450    0.59920    1.000
    C629     C        0.27100    0.82080    0.62330    1.000
    C630     C        0.28510    0.86910    0.63520    1.000
    O65      O        0.68460    0.97940    0.63010    1.000
    N45      N        0.17250    0.99570    0.59410    1.000
    C631     C        0.15990    0.94670    0.58310    1.000
    C632     C        0.10800    0.93830    0.55990    1.000
    C633     C        0.06790    0.97900    0.54790    1.000
    C634     C        0.08000    0.02780    0.55890    1.000
    C635     C        0.13300    0.03620    0.58200    1.000
    O66      O        0.81160    0.95360    0.63040    1.000
    N46      N        0.27900    0.04720    0.61980    1.000
    C636     C        0.33300    0.05060    0.59700    1.000
    C637     C        0.36800    0.09700    0.59140    1.000
    C638     C        0.34800    0.13960    0.60870    1.000
    C639     C        0.29400    0.13620    0.63150    1.000
    C640     C        0.25900    0.09000    0.63700    1.000
    C641     C        0.32700    0.95800    0.58920    1.000
    C642     C        0.36100    0.00360    0.58210    1.000
    C643     C        0.41600    0.00500    0.55970    1.000
    C644     C        0.43700    0.96100    0.54440    1.000
    C645     C        0.40300    0.91500    0.55140    1.000
    C646     C        0.34800    0.91360    0.57380    1.000
    Ir19     Ir       0.24830    0.97540    0.62652    1.000
    Zn14     Zn       0.65490    0.95904    0.67393    1.000
    C647     C        0.75840    0.53530    0.80060    1.000
    O67      O        0.69160    0.90370    0.69850    1.000
    O68      O        0.69290    0.51290    0.79700    1.000
    O69      O        0.82100    0.52350    0.81560    1.000
    O70      O        0.55200    0.96720    0.66280    1.000
    C648     C        0.68360    0.75350    0.73250    1.000
    C649     C        0.81470    0.75120    0.73160    1.000
    C650     C        0.68560    0.65580    0.76270    1.000
    C651     C        0.81660    0.65920    0.76040    1.000
    Ir20     Ir       0.60340    0.71100    0.74750    1.000
    Ir21     Ir       0.89600    0.70620    0.74620    1.000
    C652     C        0.97300    0.75960    0.73420    1.000
    C653     C        0.00900    0.73640    0.70910    1.000
    C654     C        0.06500    0.76200    0.69350    1.000
    C655     C        0.08500    0.81000    0.70300    1.000
    C656     C        0.05000    0.83320    0.72820    1.000
    C657     C        0.99400    0.80800    0.74380    1.000
    N47      N        0.93500    0.65700    0.71330    1.000
    C658     C        0.99100    0.68430    0.69910    1.000
    C659     C        0.02700    0.66400    0.67320    1.000
    C660     C        0.00800    0.61700    0.66160    1.000
    C661     C        0.95200    0.58900    0.67590    1.000
    C662     C        0.91500    0.61000    0.70180    1.000
    C663     C        0.10400    0.76100    0.72080    1.000
    C664     C        0.05500    0.73950    0.69940    1.000
    C665     C        0.04200    0.76400    0.67100    1.000
    C666     C        0.07600    0.80900    0.66390    1.000
    C667     C        0.12500    0.83000    0.68500    1.000
    C668     C        0.13900    0.80600    0.71380    1.000
    N48      N        0.02600    0.66700    0.73520    1.000
    C669     C        0.01600    0.69220    0.70670    1.000
    C670     C        0.97100    0.67100    0.68370    1.000
    C671     C        0.93600    0.62500    0.68920    1.000
    C672     C        0.94600    0.60000    0.71780    1.000
    C673     C        0.99100    0.62100    0.74080    1.000
    C674     C        0.58000    0.65820    0.70830    1.000
    C675     C        0.53400    0.61900    0.71770    1.000
    C676     C        0.51400    0.58100    0.69650    1.000
    C677     C        0.54100    0.58200    0.66590    1.000
    C678     C        0.58800    0.62100    0.65650    1.000
    C679     C        0.60700    0.65900    0.67770    1.000
    N49      N        0.52700    0.65910    0.76890    1.000
    C680     C        0.50400    0.62000    0.75020    1.000
    C681     C        0.46300    0.58100    0.75950    1.000
    C682     C        0.43700    0.58200    0.79040    1.000
    C683     C        0.45700    0.62100    0.81050    1.000
    C684     C        0.50200    0.66000    0.79970    1.000
    N50      N        0.51900    0.75300    0.72830    1.000
    C685     C        0.44900    0.82740    0.74170    1.000
    C686     C        0.41000    0.82300    0.71380    1.000
    C687     C        0.42600    0.78300    0.69310    1.000
    C688     C        0.48000    0.74800    0.70030    1.000
    C689     C        0.60000    0.76060    0.78330    1.000
    C690     C        0.54600    0.79700    0.77840    1.000
    C691     C        0.53500    0.83500    0.80060    1.000
    C692     C        0.57700    0.83700    0.82780    1.000
    C693     C        0.63100    0.80000    0.83270    1.000
    C694     C        0.64200    0.76200    0.81050    1.000
    C695     C        0.25240    0.37740    0.69710    1.000
    C696     C        0.25110    0.32520    0.71270    1.000
    C697     C        0.18490    0.30200    0.71960    1.000
    C698     C        0.24900    0.22800    0.73850    1.000
    C699     C        0.31600    0.29970    0.71870    1.000
    O71      O        0.31640    0.39050    0.68360    1.000
    C700     C        0.25680    0.08650    0.78330    1.000
    C701     C        0.18940    0.10850    0.77720    1.000
    C702     C        0.24900    0.18110    0.75430    1.000
    C703     C        0.32040    0.11190    0.77490    1.000
    C704     C        0.02600    0.45670    0.69120    1.000
    C705     C        0.93880    0.45350    0.69250    1.000
    C706     C        0.89810    0.45880    0.66510    1.000
    C707     C        0.78790    0.46080    0.69580    1.000
    C708     C        0.82860    0.45550    0.72330    1.000
    C709     C        0.90410    0.45190    0.72160    1.000
    O72      O        0.06020    0.44850    0.71910    1.000
    C710     C        0.47260    0.45830    0.68400    1.000
    C711     C        0.55770    0.46450    0.68840    1.000
    C712     C        0.60180    0.46860    0.66190    1.000
    C713     C        0.70840    0.46150    0.69470    1.000
    C714     C        0.66420    0.45730    0.72120    1.000
    C715     C        0.58890    0.45880    0.71810    1.000
    O73      O        0.45340    0.45070    0.65440    1.000
    O74      O        0.43360    0.46140    0.71040    1.000
    C716     C        0.24950    0.47000    0.61690    1.000
    C717     C        0.25150    0.48010    0.58140    1.000
    C718     C        0.31390    0.46980    0.56400    1.000
    C719     C        0.31500    0.47910    0.53170    1.000
    C720     C        0.25360    0.49870    0.51690    1.000
    C721     C        0.19110    0.50890    0.53430    1.000
    C722     C        0.19010    0.49960    0.56660    1.000
    Zn15     Zn       0.34400    0.45880    0.67351    1.000
    C723     C        0.74880    0.41100    0.62290    1.000
    C724     C        0.69840    0.40470    0.59880    1.000
    C725     C        0.68430    0.35650    0.58690    1.000
    C726     C        0.72100    0.31450    0.59920    1.000
    C727     C        0.77100    0.32080    0.62330    1.000
    C728     C        0.78510    0.36910    0.63520    1.000
    O75      O        0.18460    0.47940    0.63010    1.000
    N51      N        0.67250    0.49570    0.59410    1.000
    C729     C        0.65990    0.44670    0.58310    1.000
    C730     C        0.60800    0.43830    0.55990    1.000
    C731     C        0.56790    0.47900    0.54790    1.000
    C732     C        0.58000    0.52780    0.55890    1.000
    C733     C        0.63300    0.53620    0.58200    1.000
    O76      O        0.31160    0.45360    0.63040    1.000
    N52      N        0.77900    0.54720    0.61980    1.000
    C734     C        0.83300    0.55060    0.59700    1.000
    C735     C        0.86800    0.59700    0.59140    1.000
    C736     C        0.84800    0.63960    0.60870    1.000
    C737     C        0.79400    0.63620    0.63150    1.000
    C738     C        0.75900    0.59000    0.63700    1.000
    C739     C        0.82700    0.45800    0.58920    1.000
    C740     C        0.86100    0.50360    0.58210    1.000
    C741     C        0.91600    0.50500    0.55970    1.000
    C742     C        0.93700    0.46100    0.54440    1.000
    C743     C        0.90300    0.41500    0.55140    1.000
    C744     C        0.84800    0.41360    0.57380    1.000
    Ir22     Ir       0.74830    0.47540    0.62652    1.000
    Zn16     Zn       0.15490    0.45904    0.67393    1.000
    C745     C        0.25840    0.03530    0.80060    1.000
    O77      O        0.19160    0.40370    0.69850    1.000
    O78      O        0.19290    0.01290    0.79700    1.000
    O79      O        0.32100    0.02350    0.81560    1.000
    O80      O        0.05200    0.46720    0.66280    1.000
    C746     C        0.18360    0.25350    0.73250    1.000
    C747     C        0.31470    0.25120    0.73160    1.000
    C748     C        0.18560    0.15580    0.76270    1.000
    C749     C        0.31660    0.15920    0.76040    1.000
    Ir23     Ir       0.10340    0.21100    0.74750    1.000
    Ir24     Ir       0.39600    0.20620    0.74620    1.000
    C750     C        0.47300    0.25960    0.73420    1.000
    C751     C        0.50900    0.23640    0.70910    1.000
    C752     C        0.56500    0.26200    0.69350    1.000
    C753     C        0.58500    0.31000    0.70300    1.000
    C754     C        0.55000    0.33320    0.72820    1.000
    C755     C        0.49400    0.30800    0.74380    1.000
    N53      N        0.43500    0.15700    0.71330    1.000
    C756     C        0.49100    0.18430    0.69910    1.000
    C757     C        0.52700    0.16400    0.67320    1.000
    C758     C        0.50800    0.11700    0.66160    1.000
    C759     C        0.45200    0.08900    0.67590    1.000
    C760     C        0.41500    0.11000    0.70180    1.000
    C761     C        0.60400    0.26100    0.72080    1.000
    C762     C        0.55500    0.23950    0.69940    1.000
    C763     C        0.54200    0.26400    0.67100    1.000
    C764     C        0.57600    0.30900    0.66390    1.000
    C765     C        0.62500    0.33000    0.68500    1.000
    C766     C        0.63900    0.30600    0.71380    1.000
    N54      N        0.52600    0.16700    0.73520    1.000
    C767     C        0.51600    0.19220    0.70670    1.000
    C768     C        0.47100    0.17100    0.68370    1.000
    C769     C        0.43600    0.12500    0.68920    1.000
    C770     C        0.44600    0.10000    0.71780    1.000
    C771     C        0.49100    0.12100    0.74080    1.000
    C772     C        0.08000    0.15820    0.70830    1.000
    C773     C        0.03400    0.11900    0.71770    1.000
    C774     C        0.01400    0.08100    0.69650    1.000
    C775     C        0.04100    0.08200    0.66590    1.000
    C776     C        0.08800    0.12100    0.65650    1.000
    C777     C        0.10700    0.15900    0.67770    1.000
    N55      N        0.02700    0.15910    0.76890    1.000
    C778     C        0.00400    0.12000    0.75020    1.000
    C779     C        0.96300    0.08100    0.75950    1.000
    C780     C        0.93700    0.08200    0.79040    1.000
    C781     C        0.95700    0.12100    0.81050    1.000
    C782     C        0.00200    0.16000    0.79970    1.000
    N56      N        0.01900    0.25300    0.72830    1.000
    C783     C        0.94900    0.32740    0.74170    1.000
    C784     C        0.91000    0.32300    0.71380    1.000
    C785     C        0.92600    0.28300    0.69310    1.000
    C786     C        0.98000    0.24800    0.70030    1.000
    C787     C        0.10000    0.26060    0.78330    1.000
    C788     C        0.04600    0.29700    0.77840    1.000
    C789     C        0.03500    0.33500    0.80060    1.000
    C790     C        0.07700    0.33700    0.82780    1.000
    C791     C        0.13100    0.30000    0.83270    1.000
    C792     C        0.14200    0.26200    0.81050    1.000
    C793     C        0.50000    0.20740    0.25000    1.000
    C794     C        0.00000    0.70740    0.25000    1.000
    C795     C        0.50000    0.79260    0.75000    1.000
    C796     C        0.00000    0.29260    0.75000    1.000
