# CIF file generated by openbabel 3.1.0, see https://openbabel.org
data_I
_chemical_name_common 'image0'
_cell_length_a 9.69
_cell_length_b 14.4331
_cell_length_c 29.8442
_cell_angle_alpha 90
_cell_angle_beta 90
_cell_angle_gamma 90
_space_group_name_H-M_alt 'P 1'
_space_group_name_Hall 'P 1'
loop_
    _symmetry_equiv_pos_as_xyz
    x,y,z
loop_
    _atom_site_label
    _atom_site_type_symbol
    _atom_site_fract_x
    _atom_site_fract_y
    _atom_site_fract_z
    _atom_site_occupancy
    Mn1      Mn       0.13053    0.23551    0.70051    1.000
    Mn2      Mn       0.24975    0.45728    0.54606    1.000
    P1       P        0.06314    0.29612    0.59580    1.000
    P2       P        0.28638    0.53050    0.65278    1.000
    O1       O        0.32540    0.50290    0.60690    1.000
    O2       O        0.39390    0.49025    0.68610    1.000
    H1       H        0.37130    0.43750    0.69320    1.000
    O3       O        0.14270    0.49169    0.66564    1.000
    H2       H        0.13630    0.43790    0.65700    1.000
    O4       O        0.28170    0.63260    0.65879    1.000
    O5       O        0.18810    0.32170    0.56932    1.000
    O6       O        0.07590    0.32026    0.64442    1.000
    O7       O        0.93110    0.34434    0.57759    1.000
    H3       H        0.95040    0.39680    0.56910    1.000
    O8       O        0.02840    0.19072    0.58922    1.000
    H4       H        0.07410    0.15970    0.60680    1.000
    O9       O        0.44610    0.39624    0.52473    1.000
    O10      O        0.64490    0.43180    0.49199    1.000
    O11      O        0.13050    0.42305    0.48493    1.000
    O12      O        0.93200    0.45352    0.45081    1.000
    O13      O        0.92710    0.17063    0.70349    1.000
    O14      O        0.01570    0.31810    0.75027    1.000
    O15      O        0.73160    0.17220    0.74166    1.000
    O16      O        0.82200    0.31753    0.78965    1.000
    C1       C        0.52600    0.45020    0.50465    1.000
    C2       C        0.01870    0.46420    0.48163    1.000
    C3       C        0.84890    0.20200    0.73337    1.000
    C4       C        0.90140    0.28650    0.76006    1.000
    Mn3      Mn       0.36947    0.76449    0.20051    1.000
    Mn4      Mn       0.25025    0.54272    0.04606    1.000
    P3       P        0.43686    0.70388    0.09580    1.000
    P4       P        0.21362    0.46950    0.15278    1.000
    O17      O        0.17460    0.49710    0.10690    1.000
    O18      O        0.10610    0.50975    0.18610    1.000
    H5       H        0.12870    0.56250    0.19320    1.000
    O19      O        0.35730    0.50831    0.16564    1.000
    H6       H        0.36370    0.56210    0.15700    1.000
    O20      O        0.21830    0.36740    0.15879    1.000
    O21      O        0.31190    0.67830    0.06932    1.000
    O22      O        0.42410    0.67974    0.14442    1.000
    O23      O        0.56890    0.65566    0.07759    1.000
    H7       H        0.54960    0.60320    0.06910    1.000
    O24      O        0.47160    0.80928    0.08922    1.000
    H8       H        0.42590    0.84030    0.10680    1.000
    O25      O        0.05390    0.60376    0.02473    1.000
    O26      O        0.85510    0.56820    0.99199    1.000
    O27      O        0.36950    0.57695    0.98493    1.000
    O28      O        0.56800    0.54648    0.95081    1.000
    O29      O        0.57290    0.82937    0.20349    1.000
    O30      O        0.48430    0.68190    0.25027    1.000
    O31      O        0.76840    0.82780    0.24166    1.000
    O32      O        0.67800    0.68247    0.28965    1.000
    C5       C        0.97400    0.54980    0.00465    1.000
    C6       C        0.48130    0.53580    0.98163    1.000
    C7       C        0.65110    0.79800    0.23337    1.000
    C8       C        0.59860    0.71350    0.26006    1.000
    Mn5      Mn       0.86947    0.73551    0.79949    1.000
    Mn6      Mn       0.75025    0.95728    0.95394    1.000
    P5       P        0.93686    0.79612    0.90420    1.000
    P6       P        0.71362    0.03050    0.84722    1.000
    O33      O        0.67460    0.00290    0.89310    1.000
    O34      O        0.60610    0.99025    0.81390    1.000
    H9       H        0.62870    0.93750    0.80680    1.000
    O35      O        0.85730    0.99169    0.83436    1.000
    H10      H        0.86370    0.93790    0.84300    1.000
    O36      O        0.71830    0.13260    0.84121    1.000
    O37      O        0.81190    0.82170    0.93068    1.000
    O38      O        0.92410    0.82026    0.85558    1.000
    O39      O        0.06890    0.84434    0.92241    1.000
    H11      H        0.04960    0.89680    0.93090    1.000
    O40      O        0.97160    0.69072    0.91078    1.000
    H12      H        0.92590    0.65970    0.89320    1.000
    O41      O        0.55390    0.89624    0.97527    1.000
    O42      O        0.35510    0.93180    0.00801    1.000
    O43      O        0.86950    0.92305    0.01507    1.000
    O44      O        0.06800    0.95352    0.04919    1.000
    O45      O        0.07290    0.67063    0.79651    1.000
    O46      O        0.98430    0.81810    0.74973    1.000
    O47      O        0.26840    0.67220    0.75834    1.000
    O48      O        0.17800    0.81753    0.71035    1.000
    C9       C        0.47400    0.95020    0.99535    1.000
    C10      C        0.98130    0.96420    0.01837    1.000
    C11      C        0.15110    0.70200    0.76663    1.000
    C12      C        0.09860    0.78650    0.73994    1.000
    Mn7      Mn       0.63053    0.26449    0.29949    1.000
    Mn8      Mn       0.74975    0.04272    0.45394    1.000
    P7       P        0.56314    0.20388    0.40420    1.000
    P8       P        0.78638    0.96950    0.34722    1.000
    O49      O        0.82540    0.99710    0.39310    1.000
    O50      O        0.89390    0.00975    0.31390    1.000
    H13      H        0.87130    0.06250    0.30680    1.000
    O51      O        0.64270    0.00831    0.33436    1.000
    H14      H        0.63630    0.06210    0.34300    1.000
    O52      O        0.78170    0.86740    0.34121    1.000
    O53      O        0.68810    0.17830    0.43068    1.000
    O54      O        0.57590    0.17974    0.35558    1.000
    O55      O        0.43110    0.15566    0.42241    1.000
    H15      H        0.45040    0.10320    0.43090    1.000
    O56      O        0.52840    0.30928    0.41078    1.000
    H16      H        0.57410    0.34030    0.39320    1.000
    O57      O        0.94610    0.10376    0.47527    1.000
    O58      O        0.14490    0.06820    0.50801    1.000
    O59      O        0.63050    0.07695    0.51507    1.000
    O60      O        0.43200    0.04648    0.54919    1.000
    O61      O        0.42710    0.32937    0.29651    1.000
    O62      O        0.51570    0.18190    0.24973    1.000
    O63      O        0.23160    0.32780    0.25834    1.000
    O64      O        0.32200    0.18247    0.21035    1.000
    C13      C        0.02600    0.04980    0.49535    1.000
    C14      C        0.51870    0.03580    0.51837    1.000
    C15      C        0.34890    0.29800    0.26663    1.000
    C16      C        0.40140    0.21350    0.23994    1.000
    Mn9      Mn       0.86947    0.76449    0.29949    1.000
    Mn10     Mn       0.75025    0.54272    0.45394    1.000
    P9       P        0.93686    0.70388    0.40420    1.000
    P10      P        0.71362    0.46950    0.34722    1.000
    O65      O        0.67460    0.49710    0.39310    1.000
    O66      O        0.60610    0.50975    0.31390    1.000
    H17      H        0.62870    0.56250    0.30680    1.000
    O67      O        0.85730    0.50831    0.33436    1.000
    H18      H        0.86370    0.56210    0.34300    1.000
    O68      O        0.71830    0.36740    0.34121    1.000
    O69      O        0.81190    0.67830    0.43068    1.000
    O70      O        0.92410    0.67974    0.35558    1.000
    O71      O        0.06890    0.65566    0.42241    1.000
    H19      H        0.04960    0.60320    0.43090    1.000
    O72      O        0.97160    0.80928    0.41078    1.000
    H20      H        0.92590    0.84030    0.39320    1.000
    O73      O        0.55390    0.60376    0.47527    1.000
    O74      O        0.35510    0.56820    0.50801    1.000
    O75      O        0.86950    0.57695    0.51507    1.000
    O76      O        0.06800    0.54648    0.54919    1.000
    O77      O        0.07290    0.82937    0.29651    1.000
    O78      O        0.98430    0.68190    0.24973    1.000
    O79      O        0.26840    0.82780    0.25834    1.000
    O80      O        0.17800    0.68247    0.21035    1.000
    C17      C        0.47400    0.54980    0.49535    1.000
    C18      C        0.98130    0.53580    0.51837    1.000
    C19      C        0.15110    0.79800    0.26663    1.000
    C20      C        0.09860    0.71350    0.23994    1.000
    Mn11     Mn       0.63053    0.23551    0.79949    1.000
    Mn12     Mn       0.74975    0.45728    0.95394    1.000
    P11      P        0.56314    0.29612    0.90420    1.000
    P12      P        0.78638    0.53050    0.84722    1.000
    O81      O        0.82540    0.50290    0.89310    1.000
    O82      O        0.89390    0.49025    0.81390    1.000
    H21      H        0.87130    0.43750    0.80680    1.000
    O83      O        0.64270    0.49169    0.83436    1.000
    H22      H        0.63630    0.43790    0.84300    1.000
    O84      O        0.78170    0.63260    0.84121    1.000
    O85      O        0.68810    0.32170    0.93068    1.000
    O86      O        0.57590    0.32026    0.85558    1.000
    O87      O        0.43110    0.34434    0.92241    1.000
    H23      H        0.45040    0.39680    0.93090    1.000
    O88      O        0.52840    0.19072    0.91078    1.000
    H24      H        0.57410    0.15970    0.89320    1.000
    O89      O        0.94610    0.39624    0.97527    1.000
    O90      O        0.14490    0.43180    0.00801    1.000
    O91      O        0.63050    0.42305    0.01507    1.000
    O92      O        0.43200    0.45352    0.04919    1.000
    O93      O        0.42710    0.17063    0.79651    1.000
    O94      O        0.51570    0.31810    0.74973    1.000
    O95      O        0.23160    0.17220    0.75834    1.000
    O96      O        0.32200    0.31753    0.71035    1.000
    C21      C        0.02600    0.45020    0.99535    1.000
    C22      C        0.51870    0.46420    0.01837    1.000
    C23      C        0.34890    0.20200    0.76663    1.000
    C24      C        0.40140    0.28650    0.73994    1.000
    Mn13     Mn       0.13053    0.26449    0.20051    1.000
    Mn14     Mn       0.24975    0.04272    0.04606    1.000
    P13      P        0.06314    0.20388    0.09580    1.000
    P14      P        0.28638    0.96950    0.15278    1.000
    O97      O        0.32540    0.99710    0.10690    1.000
    O98      O        0.39390    0.00975    0.18610    1.000
    H25      H        0.37130    0.06250    0.19320    1.000
    O99      O        0.14270    0.00831    0.16564    1.000
    H26      H        0.13630    0.06210    0.15700    1.000
    O100     O        0.28170    0.86740    0.15879    1.000
    O101     O        0.18810    0.17830    0.06932    1.000
    O102     O        0.07590    0.17974    0.14442    1.000
    O103     O        0.93110    0.15566    0.07759    1.000
    H27      H        0.95040    0.10320    0.06910    1.000
    O104     O        0.02840    0.30928    0.08922    1.000
    H28      H        0.07410    0.34030    0.10680    1.000
    O105     O        0.44610    0.10376    0.02473    1.000
    O106     O        0.64490    0.06820    0.99199    1.000
    O107     O        0.13050    0.07695    0.98493    1.000
    O108     O        0.93200    0.04648    0.95081    1.000
    O109     O        0.92710    0.32937    0.20349    1.000
    O110     O        0.01570    0.18190    0.25027    1.000
    O111     O        0.73160    0.32780    0.24166    1.000
    O112     O        0.82200    0.18247    0.28965    1.000
    C25      C        0.52600    0.04980    0.00465    1.000
    C26      C        0.01870    0.03580    0.98163    1.000
    C27      C        0.84890    0.29800    0.23337    1.000
    C28      C        0.90140    0.21350    0.26006    1.000
    Mn15     Mn       0.36947    0.73551    0.70051    1.000
    Mn16     Mn       0.25025    0.95728    0.54606    1.000
    P15      P        0.43686    0.79612    0.59580    1.000
    P16      P        0.21362    0.03050    0.65278    1.000
    O113     O        0.17460    0.00290    0.60690    1.000
    O114     O        0.10610    0.99025    0.68610    1.000
    H29      H        0.12870    0.93750    0.69320    1.000
    O115     O        0.35730    0.99169    0.66564    1.000
    H30      H        0.36370    0.93790    0.65700    1.000
    O116     O        0.21830    0.13260    0.65879    1.000
    O117     O        0.31190    0.82170    0.56932    1.000
    O118     O        0.42410    0.82026    0.64442    1.000
    O119     O        0.56890    0.84434    0.57759    1.000
    H31      H        0.54960    0.89680    0.56910    1.000
    O120     O        0.47160    0.69072    0.58922    1.000
    H32      H        0.42590    0.65970    0.60680    1.000
    O121     O        0.05390    0.89624    0.52473    1.000
    O122     O        0.85510    0.93180    0.49199    1.000
    O123     O        0.36950    0.92305    0.48493    1.000
    O124     O        0.56800    0.95352    0.45081    1.000
    O125     O        0.57290    0.67063    0.70349    1.000
    O126     O        0.48430    0.81810    0.75027    1.000
    O127     O        0.76840    0.67220    0.74166    1.000
    O128     O        0.67800    0.81753    0.78965    1.000
    C29      C        0.97400    0.95020    0.50465    1.000
    C30      C        0.48130    0.96420    0.48163    1.000
    C31      C        0.65110    0.70200    0.73337    1.000
    C32      C        0.59860    0.78650    0.76006    1.000
