# CIF file generated by openbabel 3.1.0, see https://openbabel.org
data_I
_chemical_name_common 'ALOLES_ion_b'
_cell_length_a 15.2561
_cell_length_b 15.2561
_cell_length_c 28.086
_cell_angle_alpha 91.1105
_cell_angle_beta 91.1105
_cell_angle_gamma 36.6965
_space_group_name_H-M_alt 'P 1'
_space_group_name_Hall 'P 1'
loop_
    _symmetry_equiv_pos_as_xyz
    x,y,z
loop_
    _atom_site_label
    _atom_site_type_symbol
    _atom_site_fract_x
    _atom_site_fract_y
    _atom_site_fract_z
    _atom_site_occupancy
    Bi1      Bi       0.56274    0.62944    0.03869    1.000
    Bi2      Bi       0.75792    0.67495    0.01576    1.000
    Bi3      Bi       0.44929    0.61663    0.14446    1.000
    O4       O        0.64527    0.95430    0.03030    1.000
    O5       O        0.55631    0.88883    0.04350    1.000
    O6       O        0.18470    0.24936    0.10334    1.000
    O7       O        0.12726    0.35236    0.03261    1.000
    O8       O        0.03724    0.55701    0.11302    1.000
    O9       O        0.15887    0.58267    0.10743    1.000
    O10      O        0.36899    0.26378    0.03767    1.000
    O11      O        0.62793    0.54183    0.11045    1.000
    O12      O        0.70068    0.62532    0.12247    1.000
    O13      O        0.38640    0.76046    0.20062    1.000
    O14      O        0.49380    0.78533    0.24273    1.000
    O15      O        0.54608    0.57455    0.34724    1.000
    O16      O        0.54321    0.48657    0.28770    1.000
    O17      O        0.59681    0.49786    0.20426    1.000
    O18      O        0.74780    0.54374    0.00614    1.000
    O19      O        0.98116    0.34634    0.97946    1.000
    O20      O        0.55790    0.56371    0.96831    1.000
    O21      O        0.73753    0.35803    0.92332    1.000
    O22      O        0.64007    0.26740    0.95514    1.000
    O23      O        0.66365    0.19528    0.02581    1.000
    O24      O        0.66621    0.42012    0.04409    1.000
    O25      O        0.65228    0.38556    0.14396    1.000
    C26      C        0.56533    0.97148    0.05357    1.000
    C27      C        0.48175    0.07740    0.09464    1.000
    H28      H        0.55774    0.06165    0.11410    1.000
    H29      H        0.45595    0.04555    0.12016    1.000
    C30      C        0.34045    0.24017    0.07955    1.000
    C31      C        0.21585    0.27636    0.07243    1.000
    C32      C        0.30091    0.33841    0.11998    1.000
    H33      H        0.29409    0.30973    0.15454    1.000
    H34      H        0.39077    0.31547    0.12358    1.000
    C35      C        0.15873    0.50034    0.11230    1.000
    C36      C        0.69163    0.55883    0.13833    1.000
    C37      C        0.75338    0.49288    0.18769    1.000
    H38      H        0.79710    0.52011    0.20341    1.000
    H39      H        0.84694    0.37155    0.18404    1.000
    C40      C        0.63917    0.54583    0.22160    1.000
    C41      C        0.50427    0.70552    0.22261    1.000
    C42      C        0.69924    0.48514    0.27287    1.000
    H43      H        0.71896    0.53367    0.29099    1.000
    H44      H        0.80589    0.36449    0.27106    1.000
    C45      C        0.59508    0.51423    0.30206    1.000
    C46      C        0.88050    0.39219    0.00036    1.000
    C47      C        0.90076    0.28347    0.01735    1.000
    H48      H        0.92296    0.26856    0.05632    1.000
    H49      H        0.00145    0.17542    0.00042    1.000
    C50      C        0.76783    0.32847    0.00730    1.000
    C51      C        0.68881    0.41448    0.96271    1.000
    C52      C        0.82221    0.18863    0.00560    1.000
    H53      H        0.90416    0.11729    0.97693    1.000
    H54      H        0.87427    0.13198    0.04037    1.000
    C55      C        0.70765    0.21244    0.99453    1.000
    O56      O        0.23192    0.95700    0.87784    1.000
    K57      K        0.37849    0.71587    0.89500    1.000
    N58      N        0.93804    0.99651    0.86353    1.000
    Bi59     Bi       0.36564    0.47210    0.45275    1.000
    Bi60     Bi       0.20409    0.44376    0.52114    1.000
    Bi61     Bi       0.40957    0.56865    0.34727    1.000
    O62      O        0.20762    0.34259    0.42344    1.000
    O63      O        0.04013    0.50369    0.48196    1.000
    O64      O        0.77627    0.79992    0.40284    1.000
    O65      O        0.71505    0.81751    0.47800    1.000
    O66      O        0.49113    0.93040    0.39011    1.000
    O67      O        0.46025    0.81315    0.39338    1.000
    O68      O        0.80187    0.57687    0.46297    1.000
    O69      O        0.40932    0.43742    0.37612    1.000
    O70      O        0.21113    0.50507    0.36978    1.000
    O71      O        0.22564    0.72294    0.29942    1.000
    O72      O        0.09623    0.72650    0.25638    1.000
    O73      O        0.53044    0.42629    0.16755    1.000
    O74      O        0.30695    0.63774    0.17808    1.000
    O75      O        0.46845    0.44512    0.28483    1.000
    O76      O        0.38761    0.32204    0.47590    1.000
    O77      O        0.54640    0.10964    0.51772    1.000
    O78      O        0.42977    0.46702    0.52479    1.000
    O79      O        0.60948    0.26894    0.57212    1.000
    O80      O        0.74213    0.33188    0.54055    1.000
    O81      O        0.85418    0.26626    0.47333    1.000
    O82      O        0.58835    0.33237    0.45147    1.000
    O83      O        0.61907    0.34626    0.36085    1.000
    C84      C        0.08041    0.44060    0.43660    1.000
    C85      C        0.96737    0.49297    0.40316    1.000
    H86      H        0.99759    0.39930    0.39547    1.000
    H87      H        0.97435    0.52317    0.36909    1.000
    C88      C        0.80836    0.62451    0.42226    1.000
    C89      C        0.76665    0.75201    0.43340    1.000
    C90      C        0.70657    0.66680    0.38261    1.000
    H91      H        0.73357    0.67406    0.34768    1.000
    H92      H        0.72838    0.57774    0.37913    1.000
    C93      C        0.54520    0.81031    0.39015    1.000
    C94      C        0.31542    0.45551    0.35024    1.000
    C95      C        0.34054    0.41481    0.29814    1.000
    H96      H        0.25158    0.44269    0.28407    1.000
    H97      H        0.44550    0.29399    0.29494    1.000
    C98      C        0.34871    0.49159    0.26834    1.000
    C99      C        0.21362    0.65453    0.27404    1.000
    C100     C        0.37239    0.44909    0.21490    1.000
    H101     H        0.27666    0.48905    0.20026    1.000
    H102     H        0.47021    0.32758    0.21134    1.000
    C103     C        0.39779    0.50913    0.18566    1.000
    C104     C        0.52981    0.18507    0.49154    1.000
    C105     C        0.66545    0.12703    0.47680    1.000
    H106     H        0.68083    0.10481    0.43786    1.000
    H107     H        0.76300    0.01970    0.49456    1.000
    C108     C        0.65804    0.23300    0.48886    1.000
    C109     C        0.56787    0.32220    0.53240    1.000
    C110     C        0.81362    0.14782    0.49491    1.000
    H111     H        0.87112    0.07008    0.52502    1.000
    H112     H        0.87618    0.08380    0.46179    1.000
    C113     C        0.80938    0.24889    0.50416    1.000
    O114     O        0.04354    0.75797    0.61130    1.000
    K115     K        0.27502    0.63821    0.59861    1.000
    N116     N        0.02284    0.10224    0.62170    1.000
    Bi117    Bi       0.42496    0.39025    0.95336    1.000
    Bi118    Bi       0.22404    0.35031    0.97859    1.000
    Bi119    Bi       0.54148    0.40144    0.84620    1.000
    O120     O        0.32023    0.08079    0.96711    1.000
    O121     O        0.42225    0.13202    0.95276    1.000
    O122     O        0.76623    0.80493    0.89145    1.000
    O123     O        0.83890    0.69094    0.96111    1.000
    O124     O        0.93827    0.48280    0.88195    1.000
    O125     O        0.83227    0.43944    0.88690    1.000
    O126     O        0.60853    0.76183    0.95849    1.000
    O127     O        0.36799    0.46771    0.88037    1.000
    O128     O        0.30944    0.37022    0.86968    1.000
    O129     O        0.63202    0.24080    0.79199    1.000
    O130     O        0.54823    0.18067    0.75874    1.000
    O131     O        0.38127    0.57461    0.67341    1.000
    O132     O        0.55293    0.34363    0.67534    1.000
    O133     O        0.41336    0.49439    0.78140    1.000
    O134     O        0.23774    0.47883    0.98580    1.000
    O135     O        0.00507    0.67605    0.01318    1.000
    O136     O        0.42964    0.45717    0.02273    1.000
    O137     O        0.25165    0.66185    0.06817    1.000
    O138     O        0.34529    0.75708    0.03698    1.000
    O139     O        0.33410    0.81145    0.96451    1.000
    O140     O        0.31848    0.60115    0.94689    1.000
    O141     O        0.33205    0.62993    0.84374    1.000
    C142     C        0.40332    0.05774    0.94309    1.000
    C143     C        0.48112    0.95263    0.90193    1.000
    H144     H        0.40648    0.96155    0.88654    1.000
    H145     H        0.49643    0.98914    0.87348    1.000
    C146     C        0.62918    0.79179    0.91622    1.000
    C147     C        0.74551    0.76766    0.92233    1.000
    C148     C        0.67410    0.69041    0.87594    1.000
    H149     H        0.67443    0.72395    0.84119    1.000
    H150     H        0.59005    0.70502    0.87332    1.000
    C151     C        0.82212    0.52999    0.88280    1.000
    C152     C        0.31664    0.43718    0.85244    1.000
    C153     C        0.26511    0.48923    0.80135    1.000
    H154     H        0.22781    0.45451    0.78672    1.000
    H155     H        0.16827    0.61115    0.80157    1.000
    C156     C        0.38307    0.43206    0.76810    1.000
    C157     C        0.52410    0.27481    0.77289    1.000
    C158     C        0.33384    0.46992    0.71510    1.000
    H159     H        0.33809    0.39928    0.69926    1.000
    H160     H        0.21820    0.58542    0.71280    1.000
    C161     C        0.42648    0.45703    0.68637    1.000
    C162     C        0.10537    0.63036    0.99200    1.000
    C163     C        0.08479    0.73923    0.97508    1.000
    H164     H        0.06021    0.75598    0.93626    1.000
    H165     H        0.98548    0.84661    0.99266    1.000
    C166     C        0.21884    0.69261    0.98423    1.000
    C167     C        0.29904    0.60608    0.02864    1.000
    C168     C        0.16616    0.83139    0.98596    1.000
    H169     H        0.08468    0.90315    0.01473    1.000
    H170     H        0.11387    0.88862    0.95129    1.000
    C171     C        0.28238    0.80532    0.99676    1.000
    O172     O        0.71701    0.07766    0.11543    1.000
    K173     K        0.59883    0.30458    0.09522    1.000
    N174     N        0.03991    0.00366    0.12888    1.000
    Bi175    Bi       0.63909    0.53778    0.54388    1.000
    Bi176    Bi       0.71799    0.70880    0.52591    1.000
    Bi177    Bi       0.59631    0.43919    0.64947    1.000
    O178     O        0.89403    0.64220    0.60951    1.000
    O179     O        0.93053    0.50332    0.55444    1.000
    O180     O        0.29613    0.12120    0.56461    1.000
    O181     O        0.28483    0.24758    0.51728    1.000
    O182     O        0.61525    0.95568    0.61968    1.000
    O183     O        0.54518    0.14934    0.62490    1.000
    O184     O        0.24693    0.38409    0.59480    1.000
    O185     O        0.57780    0.58398    0.61875    1.000
    O186     O        0.73776    0.56941    0.62938    1.000
    O187     O        0.76480    0.31423    0.70451    1.000
    O188     O        0.88367    0.33637    0.73705    1.000
    O189     O        0.44709    0.59752    0.82179    1.000
    O190     O        0.67856    0.39823    0.82320    1.000
    O191     O        0.52803    0.56029    0.71489    1.000
    O192     O        0.57494    0.71412    0.51430    1.000
    O193     O        0.39399    0.94749    0.48734    1.000
    O194     O        0.55455    0.55092    0.47720    1.000
    O195     O        0.35879    0.74733    0.43206    1.000
    O196     O        0.22343    0.69573    0.45667    1.000
    O197     O        0.17516    0.69658    0.52874    1.000
    O198     O        0.41526    0.67265    0.55249    1.000
    O199     O        0.37896    0.66343    0.65102    1.000
    C200     C        0.96737    0.52055    0.59634    1.000
    C201     C        0.09590    0.38988    0.62631    1.000
    H202     H        0.08440    0.43059    0.66220    1.000
    H203     H        0.08968    0.32290    0.63159    1.000
    C204     C        0.24638    0.29483    0.60534    1.000
    C205     C        0.27787    0.21477    0.56151    1.000
    C206     C        0.36652    0.18252    0.64358    1.000
    H207     H        0.37000    0.10892    0.65239    1.000
    H208     H        0.33930    0.24056    0.67709    1.000
    C209     C        0.51616    0.09156    0.62835    1.000
    C210     C        0.64448    0.59728    0.64664    1.000
    C211     C        0.60173    0.64811    0.69786    1.000
    H212     H        0.66650    0.65224    0.71282    1.000
    H213     H        0.48428    0.76171    0.69865    1.000
    C214     C        0.62467    0.54927    0.72928    1.000
    C215     C        0.76933    0.39381    0.72345    1.000
    C216     C        0.59889    0.59224    0.78260    1.000
    H217     H        0.69085    0.55826    0.79745    1.000
    H218     H        0.49710    0.71339    0.78640    1.000
    C219     C        0.58039    0.52500    0.81090    1.000
    C220     C        0.42661    0.85470    0.50836    1.000
    C221     C        0.30508    0.89441    0.52597    1.000
    H222     H        0.29511    0.91381    0.56499    1.000
    H223     H        0.20019    0.00087    0.50974    1.000
    C224     C        0.32869    0.77622    0.51581    1.000
    C225     C        0.41183    0.69316    0.47138    1.000
    C226     C        0.17765    0.84984    0.51346    1.000
    H227     H        0.10702    0.94031    0.48736    1.000
    H228     H        0.12457    0.89821    0.54888    1.000
    C229     C        0.18428    0.74915    0.49841    1.000
    O230     O        0.93592    0.26743    0.37948    1.000
    K231     K        0.70838    0.39712    0.40720    1.000
    N232     N        0.95683    0.91141    0.37894    1.000
    N233     N        0.17118    0.97067    0.30178    1.000
    N234     N        0.84026    0.13747    0.24596    1.000
    N235     N        0.89081    0.97984    0.71063    1.000
    N236     N        0.17447    0.89353    0.75112    1.000
    H237     H        0.85343    0.18116    0.22429    1.000
    H238     H        0.74206    0.18442    0.23714    1.000
    H239     H        0.83774    0.16018    0.28160    1.000
    H240     H        0.15246    0.95660    0.26833    1.000
    H241     H        0.14428    0.05871    0.30070    1.000
    H242     H        0.28169    0.87535    0.31102    1.000
    H243     H        0.98524    0.84276    0.35253    1.000
    H244     H        0.03590    0.89751    0.38081    1.000
    H245     H        0.95123    0.88479    0.41167    1.000
    H246     H        0.02178    0.12613    0.58694    1.000
    H247     H        0.99567    0.17525    0.64519    1.000
    H248     H        0.12729    0.99503    0.63008    1.000
    H249     H        0.92141    0.91424    0.73831    1.000
    H250     H        0.80790    0.01643    0.69026    1.000
    H251     H        0.98149    0.91881    0.68913    1.000
    H252     H        0.20223    0.80580    0.74439    1.000
    H253     H        0.08196    0.98414    0.73108    1.000
    H254     H        0.26171    0.86385    0.74167    1.000
    H255     H        0.92129    0.07743    0.86106    1.000
    H256     H        0.87833    0.02051    0.89212    1.000
    H257     H        0.04945    0.89475    0.86887    1.000
    H258     H        0.94974    0.11816    0.12911    1.000
    H259     H        0.08640    0.96496    0.16293    1.000
    H260     H        0.11746    0.96383    0.10476    1.000
    H261     H        0.15213    0.92049    0.78730    1.000
    H262     H        0.85249    0.06999    0.72479    1.000
    H263     H        0.90339    0.99304    0.83203    1.000
    H264     H        0.94662    0.11264    0.62454    1.000
    H265     H        0.85494    0.02048    0.37078    1.000
    H266     H        0.92789    0.02406    0.24078    1.000
    H267     H        0.10635    0.99196    0.32706    1.000
    H268     H        0.00605    0.96775    0.11869    1.000
