# CIF file generated by openbabel 3.1.0, see https://openbabel.org
data_I
_chemical_name_common 'image0'
_cell_length_a 28.1333
_cell_length_b 28.1333
_cell_length_c 69.411
_cell_angle_alpha 90
_cell_angle_beta 90
_cell_angle_gamma 120
_space_group_name_H-M_alt 'P 1'
_space_group_name_Hall 'P 1'
loop_
    _symmetry_equiv_pos_as_xyz
    x,y,z
loop_
    _atom_site_label
    _atom_site_type_symbol
    _atom_site_fract_x
    _atom_site_fract_y
    _atom_site_fract_z
    _atom_site_occupancy
    O1       O        0.54339    0.17956    0.10313    1.000
    O2       O        0.51633    0.20740    0.12965    1.000
    O3       O        0.66021    0.23855    0.16071    1.000
    O4       O        0.66966    0.24588    0.06934    1.000
    C1       C        0.51204    0.17167    0.11728    1.000
    C2       C        0.46434    0.11451    0.11985    1.000
    C3       C        0.42653    0.10350    0.13385    1.000
    H1       H        0.43030    0.13190    0.14180    1.000
    C4       C        0.38180    0.05050    0.13672    1.000
    H2       H        0.35640    0.04380    0.14640    1.000
    C5       C        0.37620    0.00870    0.12510    1.000
    C6       C        0.41720    0.01910    0.11172    1.000
    H3       H        0.41580    0.99020    0.10480    1.000
    C7       C        0.46020    0.07240    0.10864    1.000
    H4       H        0.48600    0.07930    0.09910    1.000
    C8       C        0.33200    0.95340    0.12684    1.000
    C9       C        0.29240    0.90890    0.12883    1.000
    C10      C        0.24340    0.85630    0.13009    1.000
    C11      C        0.20470    0.84720    0.14373    1.000
    C12      C        0.21180    0.88610    0.15805    1.000
    H5       H        0.24410    0.91990    0.15780    1.000
    C13      C        0.17540    0.87730    0.17172    1.000
    C14      C        0.23620    0.81540    0.11644    1.000
    C15      C        0.27690    0.82230    0.10186    1.000
    H6       H        0.31010    0.85520    0.10160    1.000
    C16      C        0.26870    0.78370    0.08884    1.000
    C17      C        0.69360    0.21950    0.03407    1.000
    H7       H        0.65940    0.19630    0.03950    1.000
    C18      C        0.70990    0.20740    0.01622    1.000
    H8       H        0.68590    0.17490    0.00990    1.000
    C19      C        0.85180    0.23550    0.94983    1.000
    C20      C        0.88650    0.28990    0.95690    1.000
    H9       H        0.87540    0.30160    0.96770    1.000
    C21      C        0.93240    0.32280    0.94890    1.000
    H10      H        0.95340    0.35830    0.95360    1.000
    C22      C        0.95140    0.30540    0.93300    1.000
    H11      H        0.98620    0.32910    0.92810    1.000
    C23      C        0.92150    0.25670    0.92460    1.000
    H12      H        0.93510    0.24850    0.91360    1.000
    C24      C        0.86950    0.21680    0.93190    1.000
    C25      C        0.93870    0.14680    0.87234    1.000
    H13      H        0.96110    0.18170    0.87740    1.000
    C26      C        0.95790    0.12670    0.85691    1.000
    H14      H        0.99300    0.14880    0.85200    1.000
    O5       O        0.21006    0.51289    0.43646    1.000
    O6       O        0.18300    0.54073    0.46298    1.000
    O7       O        0.32688    0.57188    0.49404    1.000
    O8       O        0.33633    0.57921    0.40267    1.000
    C27      C        0.17871    0.50500    0.45061    1.000
    C28      C        0.13101    0.44784    0.45318    1.000
    C29      C        0.09320    0.43683    0.46718    1.000
    H15      H        0.09697    0.46523    0.47513    1.000
    C30      C        0.04847    0.38383    0.47005    1.000
    H16      H        0.02307    0.37713    0.47973    1.000
    C31      C        0.04287    0.34203    0.45843    1.000
    C32      C        0.08387    0.35243    0.44505    1.000
    H17      H        0.08247    0.32353    0.43813    1.000
    C33      C        0.12687    0.40573    0.44197    1.000
    H18      H        0.15267    0.41263    0.43243    1.000
    C34      C        0.99867    0.28673    0.46017    1.000
    C35      C        0.95907    0.24223    0.46216    1.000
    C36      C        0.91007    0.18963    0.46342    1.000
    C37      C        0.87137    0.18053    0.47706    1.000
    C38      C        0.87847    0.21943    0.49138    1.000
    H19      H        0.91077    0.25323    0.49113    1.000
    C39      C        0.84207    0.21063    0.50505    1.000
    C40      C        0.90287    0.14873    0.44977    1.000
    C41      C        0.94357    0.15563    0.43519    1.000
    H20      H        0.97677    0.18853    0.43493    1.000
    C42      C        0.93537    0.11703    0.42217    1.000
    C43      C        0.36027    0.55283    0.36740    1.000
    H21      H        0.32607    0.52963    0.37283    1.000
    C44      C        0.37657    0.54073    0.34955    1.000
    H22      H        0.35257    0.50823    0.34323    1.000
    C45      C        0.51847    0.56883    0.28316    1.000
    C46      C        0.55317    0.62323    0.29023    1.000
    H23      H        0.54207    0.63493    0.30103    1.000
    C47      C        0.59907    0.65613    0.28223    1.000
    H24      H        0.62007    0.69163    0.28693    1.000
    C48      C        0.61807    0.63873    0.26633    1.000
    H25      H        0.65287    0.66243    0.26143    1.000
    C49      C        0.58817    0.59003    0.25793    1.000
    H26      H        0.60177    0.58183    0.24693    1.000
    C50      C        0.53617    0.55013    0.26523    1.000
    C51      C        0.60537    0.48013    0.20567    1.000
    H27      H        0.62777    0.51503    0.21073    1.000
    C52      C        0.62457    0.46003    0.19024    1.000
    H28      H        0.65967    0.48213    0.18533    1.000
    O9       O        0.87672    0.84623    0.76980    1.000
    O10      O        0.84966    0.87407    0.79632    1.000
    O11      O        0.99354    0.90522    0.82738    1.000
    O12      O        0.00299    0.91255    0.73601    1.000
    C53      C        0.84537    0.83834    0.78395    1.000
    C54      C        0.79767    0.78118    0.78652    1.000
    C55      C        0.75986    0.77017    0.80052    1.000
    H29      H        0.76363    0.79857    0.80847    1.000
    C56      C        0.71513    0.71717    0.80339    1.000
    H30      H        0.68973    0.71047    0.81307    1.000
    C57      C        0.70953    0.67537    0.79177    1.000
    C58      C        0.75053    0.68577    0.77839    1.000
    H31      H        0.74913    0.65687    0.77147    1.000
    C59      C        0.79353    0.73907    0.77531    1.000
    H32      H        0.81933    0.74597    0.76577    1.000
    C60      C        0.66533    0.62007    0.79351    1.000
    C61      C        0.62573    0.57557    0.79550    1.000
    C62      C        0.57673    0.52297    0.79676    1.000
    C63      C        0.53803    0.51387    0.81040    1.000
    C64      C        0.54513    0.55277    0.82472    1.000
    H33      H        0.57743    0.58657    0.82447    1.000
    C65      C        0.50873    0.54397    0.83839    1.000
    C66      C        0.56953    0.48207    0.78311    1.000
    C67      C        0.61023    0.48897    0.76853    1.000
    H34      H        0.64343    0.52187    0.76827    1.000
    C68      C        0.60203    0.45037    0.75551    1.000
    C69      C        0.02693    0.88617    0.70074    1.000
    H35      H        0.99273    0.86297    0.70617    1.000
    C70      C        0.04323    0.87407    0.68289    1.000
    H36      H        0.01923    0.84157    0.67657    1.000
    C71      C        0.18513    0.90217    0.61650    1.000
    C72      C        0.21983    0.95657    0.62357    1.000
    H37      H        0.20873    0.96827    0.63437    1.000
    C73      C        0.26573    0.98947    0.61557    1.000
    H38      H        0.28673    0.02497    0.62027    1.000
    C74      C        0.28473    0.97207    0.59967    1.000
    H39      H        0.31953    0.99577    0.59477    1.000
    C75      C        0.25483    0.92337    0.59127    1.000
    H40      H        0.26843    0.91517    0.58027    1.000
    C76      C        0.20283    0.88347    0.59857    1.000
    C77      C        0.27203    0.81347    0.53901    1.000
    H41      H        0.29443    0.84837    0.54407    1.000
    C78      C        0.29123    0.79337    0.52358    1.000
    H42      H        0.32633    0.81547    0.51867    1.000
    O13      O        0.82044    0.36383    0.10313    1.000
    O14      O        0.79260    0.30893    0.12965    1.000
    O15      O        0.76145    0.42166    0.16071    1.000
    O16      O        0.75412    0.42378    0.06934    1.000
    C79      C        0.82833    0.34037    0.11728    1.000
    C80      C        0.88549    0.34983    0.11985    1.000
    C81      C        0.89650    0.32303    0.13385    1.000
    H43      H        0.86810    0.29840    0.14180    1.000
    C82      C        0.94950    0.33130    0.13672    1.000
    H44      H        0.95620    0.31260    0.14640    1.000
    C83      C        0.99130    0.36750    0.12510    1.000
    C84      C        0.98090    0.39810    0.11172    1.000
    H45      H        0.00980    0.42560    0.10480    1.000
    C85      C        0.92760    0.38780    0.10864    1.000
    H46      H        0.92070    0.40670    0.09910    1.000
    C86      C        0.04660    0.37860    0.12684    1.000
    C87      C        0.09110    0.38350    0.12883    1.000
    C88      C        0.14370    0.38710    0.13009    1.000
    C89      C        0.15280    0.35750    0.14373    1.000
    C90      C        0.11390    0.32570    0.15805    1.000
    H47      H        0.08010    0.32420    0.15780    1.000
    C91      C        0.12270    0.29810    0.17172    1.000
    C92      C        0.18460    0.42080    0.11644    1.000
    C93      C        0.17770    0.45460    0.10186    1.000
    H48      H        0.14480    0.45490    0.10160    1.000
    C94      C        0.21630    0.48500    0.08884    1.000
    C95      C        0.78050    0.47410    0.03407    1.000
    H49      H        0.80370    0.46310    0.03950    1.000
    C96      C        0.79260    0.50250    0.01622    1.000
    H50      H        0.82510    0.51100    0.00990    1.000
    C97      C        0.76450    0.61630    0.94983    1.000
    C98      C        0.71010    0.59660    0.95690    1.000
    H51      H        0.69840    0.57380    0.96770    1.000
    C99      C        0.67720    0.60960    0.94890    1.000
    H52      H        0.64170    0.59510    0.95360    1.000
    C100     C        0.69460    0.64600    0.93300    1.000
    H53      H        0.67090    0.65710    0.92810    1.000
    C101     C        0.74330    0.66480    0.92460    1.000
    H54      H        0.75150    0.68660    0.91360    1.000
    C102     C        0.78320    0.65270    0.93190    1.000
    C103     C        0.85320    0.79190    0.87234    1.000
    H55      H        0.81830    0.77940    0.87740    1.000
    C104     C        0.87330    0.83120    0.85691    1.000
    H56      H        0.85120    0.84420    0.85200    1.000
    O17      O        0.48711    0.69716    0.43646    1.000
    O18      O        0.45927    0.64226    0.46298    1.000
    O19      O        0.42812    0.75499    0.49404    1.000
    O20      O        0.42079    0.75711    0.40267    1.000
    C105     C        0.49500    0.67370    0.45061    1.000
    C106     C        0.55216    0.68316    0.45318    1.000
    C107     C        0.56317    0.65636    0.46718    1.000
    H57      H        0.53477    0.63173    0.47513    1.000
    C108     C        0.61617    0.66463    0.47005    1.000
    H58      H        0.62287    0.64593    0.47973    1.000
    C109     C        0.65797    0.70083    0.45843    1.000
    C110     C        0.64757    0.73143    0.44505    1.000
    H59      H        0.67647    0.75893    0.43813    1.000
    C111     C        0.59427    0.72113    0.44197    1.000
    H60      H        0.58737    0.74003    0.43243    1.000
    C112     C        0.71327    0.71193    0.46017    1.000
    C113     C        0.75777    0.71683    0.46216    1.000
    C114     C        0.81037    0.72043    0.46342    1.000
    C115     C        0.81947    0.69083    0.47706    1.000
    C116     C        0.78057    0.65903    0.49138    1.000
    H61      H        0.74677    0.65753    0.49113    1.000
    C117     C        0.78937    0.63143    0.50505    1.000
    C118     C        0.85127    0.75413    0.44977    1.000
    C119     C        0.84437    0.78793    0.43519    1.000
    H62      H        0.81147    0.78823    0.43493    1.000
    C120     C        0.88297    0.81833    0.42217    1.000
    C121     C        0.44717    0.80743    0.36740    1.000
    H63      H        0.47037    0.79643    0.37283    1.000
    C122     C        0.45927    0.83583    0.34955    1.000
    H64      H        0.49177    0.84433    0.34323    1.000
    C123     C        0.43117    0.94963    0.28316    1.000
    C124     C        0.37677    0.92993    0.29023    1.000
    H65      H        0.36507    0.90713    0.30103    1.000
    C125     C        0.34387    0.94293    0.28223    1.000
    H66      H        0.30837    0.92843    0.28693    1.000
    C126     C        0.36127    0.97933    0.26633    1.000
    H67      H        0.33757    0.99043    0.26143    1.000
    C127     C        0.40997    0.99813    0.25793    1.000
    H68      H        0.41817    0.01993    0.24693    1.000
    C128     C        0.44987    0.98603    0.26523    1.000
    C129     C        0.51987    0.12523    0.20567    1.000
    H69      H        0.48497    0.11273    0.21073    1.000
    C130     C        0.53997    0.16453    0.19024    1.000
    H70      H        0.51787    0.17753    0.18533    1.000
    O21      O        0.15377    0.03050    0.76980    1.000
    O22      O        0.12593    0.97560    0.79632    1.000
    O23      O        0.09478    0.08833    0.82738    1.000
    O24      O        0.08745    0.09045    0.73601    1.000
    C131     C        0.16166    0.00704    0.78395    1.000
    C132     C        0.21882    0.01650    0.78652    1.000
    C133     C        0.22983    0.98970    0.80052    1.000
    H71      H        0.20143    0.96507    0.80847    1.000
    C134     C        0.28283    0.99797    0.80339    1.000
    H72      H        0.28953    0.97927    0.81307    1.000
    C135     C        0.32463    0.03417    0.79177    1.000
    C136     C        0.31423    0.06477    0.77839    1.000
    H73      H        0.34313    0.09227    0.77147    1.000
    C137     C        0.26093    0.05447    0.77531    1.000
    H74      H        0.25403    0.07337    0.76577    1.000
    C138     C        0.37993    0.04527    0.79351    1.000
    C139     C        0.42443    0.05017    0.79550    1.000
    C140     C        0.47703    0.05377    0.79676    1.000
    C141     C        0.48613    0.02417    0.81040    1.000
    C142     C        0.44723    0.99237    0.82472    1.000
    H75      H        0.41343    0.99087    0.82447    1.000
    C143     C        0.45603    0.96477    0.83839    1.000
    C144     C        0.51793    0.08747    0.78311    1.000
    C145     C        0.51103    0.12127    0.76853    1.000
    H76      H        0.47813    0.12157    0.76827    1.000
    C146     C        0.54963    0.15167    0.75551    1.000
    C147     C        0.11383    0.14077    0.70074    1.000
    H77      H        0.13703    0.12977    0.70617    1.000
    C148     C        0.12593    0.16917    0.68289    1.000
    H78      H        0.15843    0.17767    0.67657    1.000
    C149     C        0.09783    0.28297    0.61650    1.000
    C150     C        0.04343    0.26327    0.62357    1.000
    H79      H        0.03173    0.24047    0.63437    1.000
    C151     C        0.01053    0.27627    0.61557    1.000
    H80      H        0.97503    0.26177    0.62027    1.000
    C152     C        0.02793    0.31267    0.59967    1.000
    H81      H        0.00423    0.32377    0.59477    1.000
    C153     C        0.07663    0.33147    0.59127    1.000
    H82      H        0.08483    0.35327    0.58027    1.000
    C154     C        0.11653    0.31937    0.59857    1.000
    C155     C        0.18653    0.45857    0.53901    1.000
    H83      H        0.15163    0.44607    0.54407    1.000
    C156     C        0.20663    0.49787    0.52358    1.000
    H84      H        0.18453    0.51087    0.51867    1.000
    O25      O        0.63617    0.45661    0.10313    1.000
    O26      O        0.69107    0.48367    0.12965    1.000
    O27      O        0.57834    0.33979    0.16071    1.000
    O28      O        0.57622    0.33034    0.06934    1.000
    C157     C        0.65963    0.48796    0.11728    1.000
    C158     C        0.65017    0.53566    0.11985    1.000
    C159     C        0.67697    0.57347    0.13385    1.000
    H85      H        0.70160    0.56970    0.14180    1.000
    C160     C        0.66870    0.61820    0.13672    1.000
    H86      H        0.68740    0.64360    0.14640    1.000
    C161     C        0.63250    0.62380    0.12510    1.000
    C162     C        0.60190    0.58280    0.11172    1.000
    H87      H        0.57440    0.58420    0.10480    1.000
    C163     C        0.61220    0.53980    0.10864    1.000
    H88      H        0.59330    0.51400    0.09910    1.000
    C164     C        0.62140    0.66800    0.12684    1.000
    C165     C        0.61650    0.70760    0.12883    1.000
    C166     C        0.61290    0.75660    0.13009    1.000
    C167     C        0.64250    0.79530    0.14373    1.000
    C168     C        0.67430    0.78820    0.15805    1.000
    H89      H        0.67580    0.75590    0.15780    1.000
    C169     C        0.70190    0.82460    0.17172    1.000
    C170     C        0.57920    0.76380    0.11644    1.000
    C171     C        0.54540    0.72310    0.10186    1.000
    H90      H        0.54510    0.68990    0.10160    1.000
    C172     C        0.51500    0.73130    0.08884    1.000
    C173     C        0.52590    0.30640    0.03407    1.000
    H91      H        0.53690    0.34060    0.03950    1.000
    C174     C        0.49750    0.29010    0.01622    1.000
    H92      H        0.48900    0.31410    0.00990    1.000
    C175     C        0.38370    0.14820    0.94983    1.000
    C176     C        0.40340    0.11350    0.95690    1.000
    H93      H        0.42620    0.12460    0.96770    1.000
    C177     C        0.39040    0.06760    0.94890    1.000
    H94      H        0.40490    0.04660    0.95360    1.000
    C178     C        0.35400    0.04860    0.93300    1.000
    H95      H        0.34290    0.01380    0.92810    1.000
    C179     C        0.33520    0.07850    0.92460    1.000
    H96      H        0.31340    0.06490    0.91360    1.000
    C180     C        0.34730    0.13050    0.93190    1.000
    C181     C        0.20810    0.06130    0.87234    1.000
    H97      H        0.22060    0.03890    0.87740    1.000
    C182     C        0.16880    0.04210    0.85691    1.000
    H98      H        0.15580    0.00700    0.85200    1.000
    O29      O        0.30284    0.78994    0.43646    1.000
    O30      O        0.35774    0.81700    0.46298    1.000
    O31      O        0.24501    0.67312    0.49404    1.000
    O32      O        0.24289    0.66367    0.40267    1.000
    C183     C        0.32630    0.82129    0.45061    1.000
    C184     C        0.31684    0.86899    0.45318    1.000
    C185     C        0.34364    0.90680    0.46718    1.000
    H99      H        0.36827    0.90303    0.47513    1.000
    C186     C        0.33537    0.95153    0.47005    1.000
    H100     H        0.35407    0.97693    0.47973    1.000
    C187     C        0.29917    0.95713    0.45843    1.000
    C188     C        0.26857    0.91613    0.44505    1.000
    H101     H        0.24107    0.91753    0.43813    1.000
    C189     C        0.27887    0.87313    0.44197    1.000
    H102     H        0.25997    0.84733    0.43243    1.000
    C190     C        0.28807    0.00133    0.46017    1.000
    C191     C        0.28317    0.04093    0.46216    1.000
    C192     C        0.27957    0.08993    0.46342    1.000
    C193     C        0.30917    0.12863    0.47706    1.000
    C194     C        0.34097    0.12153    0.49138    1.000
    H103     H        0.34247    0.08923    0.49113    1.000
    C195     C        0.36857    0.15793    0.50505    1.000
    C196     C        0.24587    0.09713    0.44977    1.000
    C197     C        0.21207    0.05643    0.43519    1.000
    H104     H        0.21177    0.02323    0.43493    1.000
    C198     C        0.18167    0.06463    0.42217    1.000
    C199     C        0.19257    0.63973    0.36740    1.000
    H105     H        0.20357    0.67393    0.37283    1.000
    C200     C        0.16417    0.62343    0.34955    1.000
    H106     H        0.15567    0.64743    0.34323    1.000
    C201     C        0.05037    0.48153    0.28316    1.000
    C202     C        0.07007    0.44683    0.29023    1.000
    H107     H        0.09287    0.45793    0.30103    1.000
    C203     C        0.05707    0.40093    0.28223    1.000
    H108     H        0.07157    0.37993    0.28693    1.000
    C204     C        0.02067    0.38193    0.26633    1.000
    H109     H        0.00957    0.34713    0.26143    1.000
    C205     C        0.00187    0.41183    0.25793    1.000
    H110     H        0.98007    0.39823    0.24693    1.000
    C206     C        0.01397    0.46383    0.26523    1.000
    C207     C        0.87477    0.39463    0.20567    1.000
    H111     H        0.88727    0.37223    0.21073    1.000
    C208     C        0.83547    0.37543    0.19024    1.000
    H112     H        0.82247    0.34033    0.18533    1.000
    O33      O        0.96950    0.12328    0.76980    1.000
    O34      O        0.02440    0.15034    0.79632    1.000
    O35      O        0.91167    0.00646    0.82738    1.000
    O36      O        0.90955    0.99701    0.73601    1.000
    C209     C        0.99296    0.15463    0.78395    1.000
    C210     C        0.98350    0.20233    0.78652    1.000
    C211     C        0.01030    0.24014    0.80052    1.000
    H113     H        0.03493    0.23637    0.80847    1.000
    C212     C        0.00203    0.28487    0.80339    1.000
    H114     H        0.02073    0.31027    0.81307    1.000
    C213     C        0.96583    0.29047    0.79177    1.000
    C214     C        0.93523    0.24947    0.77839    1.000
    H115     H        0.90773    0.25087    0.77147    1.000
    C215     C        0.94553    0.20647    0.77531    1.000
    H116     H        0.92663    0.18067    0.76577    1.000
    C216     C        0.95473    0.33467    0.79351    1.000
    C217     C        0.94983    0.37427    0.79550    1.000
    C218     C        0.94623    0.42327    0.79676    1.000
    C219     C        0.97583    0.46197    0.81040    1.000
    C220     C        0.00763    0.45487    0.82472    1.000
    H117     H        0.00913    0.42257    0.82447    1.000
    C221     C        0.03523    0.49127    0.83839    1.000
    C222     C        0.91253    0.43047    0.78311    1.000
    C223     C        0.87873    0.38977    0.76853    1.000
    H118     H        0.87843    0.35657    0.76827    1.000
    C224     C        0.84833    0.39797    0.75551    1.000
    C225     C        0.85923    0.97307    0.70074    1.000
    H119     H        0.87023    0.00727    0.70617    1.000
    C226     C        0.83083    0.95677    0.68289    1.000
    H120     H        0.82233    0.98077    0.67657    1.000
    C227     C        0.71703    0.81487    0.61650    1.000
    C228     C        0.73673    0.78017    0.62357    1.000
    H121     H        0.75953    0.79127    0.63437    1.000
    C229     C        0.72373    0.73427    0.61557    1.000
    H122     H        0.73823    0.71327    0.62027    1.000
    C230     C        0.68733    0.71527    0.59967    1.000
    H123     H        0.67623    0.68047    0.59477    1.000
    C231     C        0.66853    0.74517    0.59127    1.000
    H124     H        0.64673    0.73157    0.58027    1.000
    C232     C        0.68063    0.79717    0.59857    1.000
    C233     C        0.54143    0.72797    0.53901    1.000
    H125     H        0.55393    0.70557    0.54407    1.000
    C234     C        0.50213    0.70877    0.52358    1.000
    H126     H        0.48913    0.67367    0.51867    1.000
    O37      O        0.82044    0.45661    0.10313    1.000
    O38      O        0.79260    0.48367    0.12965    1.000
    O39      O        0.76145    0.33979    0.16071    1.000
    O40      O        0.75412    0.33034    0.06934    1.000
    C235     C        0.82833    0.48796    0.11728    1.000
    C236     C        0.88549    0.53566    0.11985    1.000
    C237     C        0.89650    0.57347    0.13385    1.000
    H127     H        0.86810    0.56970    0.14180    1.000
    C238     C        0.94950    0.61820    0.13672    1.000
    H128     H        0.95620    0.64360    0.14640    1.000
    C239     C        0.99130    0.62380    0.12510    1.000
    C240     C        0.98090    0.58280    0.11172    1.000
    H129     H        0.00980    0.58420    0.10480    1.000
    C241     C        0.92760    0.53980    0.10864    1.000
    H130     H        0.92070    0.51400    0.09910    1.000
    C242     C        0.04660    0.66800    0.12684    1.000
    C243     C        0.09110    0.70760    0.12883    1.000
    C244     C        0.14370    0.75660    0.13009    1.000
    C245     C        0.15280    0.79530    0.14373    1.000
    C246     C        0.11390    0.78820    0.15805    1.000
    H131     H        0.08010    0.75590    0.15780    1.000
    C247     C        0.12270    0.82460    0.17172    1.000
    C248     C        0.18460    0.76380    0.11644    1.000
    C249     C        0.17770    0.72310    0.10186    1.000
    H132     H        0.14480    0.68990    0.10160    1.000
    C250     C        0.21630    0.73130    0.08884    1.000
    C251     C        0.78050    0.30640    0.03407    1.000
    H133     H        0.80370    0.34060    0.03950    1.000
    C252     C        0.79260    0.29010    0.01622    1.000
    H134     H        0.82510    0.31410    0.00990    1.000
    C253     C        0.76450    0.14820    0.94983    1.000
    C254     C        0.71010    0.11350    0.95690    1.000
    H135     H        0.69840    0.12460    0.96770    1.000
    C255     C        0.67720    0.06760    0.94890    1.000
    H136     H        0.64170    0.04660    0.95360    1.000
    C256     C        0.69460    0.04860    0.93300    1.000
    H137     H        0.67090    0.01380    0.92810    1.000
    C257     C        0.74330    0.07850    0.92460    1.000
    H138     H        0.75150    0.06490    0.91360    1.000
    C258     C        0.78320    0.13050    0.93190    1.000
    C259     C        0.85320    0.06130    0.87234    1.000
    H139     H        0.81830    0.03890    0.87740    1.000
    C260     C        0.87330    0.04210    0.85691    1.000
    H140     H        0.85120    0.00700    0.85200    1.000
    O41      O        0.48711    0.78994    0.43646    1.000
    O42      O        0.45927    0.81700    0.46298    1.000
    O43      O        0.42812    0.67312    0.49404    1.000
    O44      O        0.42079    0.66367    0.40267    1.000
    C261     C        0.49500    0.82129    0.45061    1.000
    C262     C        0.55216    0.86899    0.45318    1.000
    C263     C        0.56317    0.90680    0.46718    1.000
    H141     H        0.53477    0.90303    0.47513    1.000
    C264     C        0.61617    0.95153    0.47005    1.000
    H142     H        0.62287    0.97693    0.47973    1.000
    C265     C        0.65797    0.95713    0.45843    1.000
    C266     C        0.64757    0.91613    0.44505    1.000
    H143     H        0.67647    0.91753    0.43813    1.000
    C267     C        0.59427    0.87313    0.44197    1.000
    H144     H        0.58737    0.84733    0.43243    1.000
    C268     C        0.71327    0.00133    0.46017    1.000
    C269     C        0.75777    0.04093    0.46216    1.000
    C270     C        0.81037    0.08993    0.46342    1.000
    C271     C        0.81947    0.12863    0.47706    1.000
    C272     C        0.78057    0.12153    0.49138    1.000
    H145     H        0.74677    0.08923    0.49113    1.000
    C273     C        0.78937    0.15793    0.50505    1.000
    C274     C        0.85127    0.09713    0.44977    1.000
    C275     C        0.84437    0.05643    0.43519    1.000
    H146     H        0.81147    0.02323    0.43493    1.000
    C276     C        0.88297    0.06463    0.42217    1.000
    C277     C        0.44717    0.63973    0.36740    1.000
    H147     H        0.47037    0.67393    0.37283    1.000
    C278     C        0.45927    0.62343    0.34955    1.000
    H148     H        0.49177    0.64743    0.34323    1.000
    C279     C        0.43117    0.48153    0.28316    1.000
    C280     C        0.37677    0.44683    0.29023    1.000
    H149     H        0.36507    0.45793    0.30103    1.000
    C281     C        0.34387    0.40093    0.28223    1.000
    H150     H        0.30837    0.37993    0.28693    1.000
    C282     C        0.36127    0.38193    0.26633    1.000
    H151     H        0.33757    0.34713    0.26143    1.000
    C283     C        0.40997    0.41183    0.25793    1.000
    H152     H        0.41817    0.39823    0.24693    1.000
    C284     C        0.44987    0.46383    0.26523    1.000
    C285     C        0.51987    0.39463    0.20567    1.000
    H153     H        0.48497    0.37223    0.21073    1.000
    C286     C        0.53997    0.37543    0.19024    1.000
    H154     H        0.51787    0.34033    0.18533    1.000
    O45      O        0.15377    0.12328    0.76980    1.000
    O46      O        0.12593    0.15034    0.79632    1.000
    O47      O        0.09478    0.00646    0.82738    1.000
    O48      O        0.08745    0.99701    0.73601    1.000
    C287     C        0.16166    0.15463    0.78395    1.000
    C288     C        0.21882    0.20233    0.78652    1.000
    C289     C        0.22983    0.24014    0.80052    1.000
    H155     H        0.20143    0.23637    0.80847    1.000
    C290     C        0.28283    0.28487    0.80339    1.000
    H156     H        0.28953    0.31027    0.81307    1.000
    C291     C        0.32463    0.29047    0.79177    1.000
    C292     C        0.31423    0.24947    0.77839    1.000
    H157     H        0.34313    0.25087    0.77147    1.000
    C293     C        0.26093    0.20647    0.77531    1.000
    H158     H        0.25403    0.18067    0.76577    1.000
    C294     C        0.37993    0.33467    0.79351    1.000
    C295     C        0.42443    0.37427    0.79550    1.000
    C296     C        0.47703    0.42327    0.79676    1.000
    C297     C        0.48613    0.46197    0.81040    1.000
    C298     C        0.44723    0.45487    0.82472    1.000
    H159     H        0.41343    0.42257    0.82447    1.000
    C299     C        0.45603    0.49127    0.83839    1.000
    C300     C        0.51793    0.43047    0.78311    1.000
    C301     C        0.51103    0.38977    0.76853    1.000
    H160     H        0.47813    0.35657    0.76827    1.000
    C302     C        0.54963    0.39797    0.75551    1.000
    C303     C        0.11383    0.97307    0.70074    1.000
    H161     H        0.13703    0.00727    0.70617    1.000
    C304     C        0.12593    0.95677    0.68289    1.000
    H162     H        0.15843    0.98077    0.67657    1.000
    C305     C        0.09783    0.81487    0.61650    1.000
    C306     C        0.04343    0.78017    0.62357    1.000
    H163     H        0.03173    0.79127    0.63437    1.000
    C307     C        0.01053    0.73427    0.61557    1.000
    H164     H        0.97503    0.71327    0.62027    1.000
    C308     C        0.02793    0.71527    0.59967    1.000
    H165     H        0.00423    0.68047    0.59477    1.000
    C309     C        0.07663    0.74517    0.59127    1.000
    H166     H        0.08483    0.73157    0.58027    1.000
    C310     C        0.11653    0.79717    0.59857    1.000
    C311     C        0.18653    0.72797    0.53901    1.000
    H167     H        0.15163    0.70557    0.54407    1.000
    C312     C        0.20663    0.70877    0.52358    1.000
    H168     H        0.18453    0.67367    0.51867    1.000
    O49      O        0.63617    0.17956    0.10313    1.000
    O50      O        0.69107    0.20740    0.12965    1.000
    O51      O        0.57834    0.23855    0.16071    1.000
    O52      O        0.57622    0.24588    0.06934    1.000
    C313     C        0.65963    0.17167    0.11728    1.000
    C314     C        0.65017    0.11451    0.11985    1.000
    C315     C        0.67697    0.10350    0.13385    1.000
    H169     H        0.70160    0.13190    0.14180    1.000
    C316     C        0.66870    0.05050    0.13672    1.000
    H170     H        0.68740    0.04380    0.14640    1.000
    C317     C        0.63250    0.00870    0.12510    1.000
    C318     C        0.60190    0.01910    0.11172    1.000
    H171     H        0.57440    0.99020    0.10480    1.000
    C319     C        0.61220    0.07240    0.10864    1.000
    H172     H        0.59330    0.07930    0.09910    1.000
    C320     C        0.62140    0.95340    0.12684    1.000
    C321     C        0.61650    0.90890    0.12883    1.000
    C322     C        0.61290    0.85630    0.13009    1.000
    C323     C        0.64250    0.84720    0.14373    1.000
    C324     C        0.67430    0.88610    0.15805    1.000
    H173     H        0.67580    0.91990    0.15780    1.000
    C325     C        0.70190    0.87730    0.17172    1.000
    C326     C        0.57920    0.81540    0.11644    1.000
    C327     C        0.54540    0.82230    0.10186    1.000
    H174     H        0.54510    0.85520    0.10160    1.000
    C328     C        0.51500    0.78370    0.08884    1.000
    C329     C        0.52590    0.21950    0.03407    1.000
    H175     H        0.53690    0.19630    0.03950    1.000
    C330     C        0.49750    0.20740    0.01622    1.000
    H176     H        0.48900    0.17490    0.00990    1.000
    C331     C        0.38370    0.23550    0.94983    1.000
    C332     C        0.40340    0.28990    0.95690    1.000
    H177     H        0.42620    0.30160    0.96770    1.000
    C333     C        0.39040    0.32280    0.94890    1.000
    H178     H        0.40490    0.35830    0.95360    1.000
    C334     C        0.35400    0.30540    0.93300    1.000
    H179     H        0.34290    0.32910    0.92810    1.000
    C335     C        0.33520    0.25670    0.92460    1.000
    H180     H        0.31340    0.24850    0.91360    1.000
    C336     C        0.34730    0.21680    0.93190    1.000
    C337     C        0.20810    0.14680    0.87234    1.000
    H181     H        0.22060    0.18170    0.87740    1.000
    C338     C        0.16880    0.12670    0.85691    1.000
    H182     H        0.15580    0.14880    0.85200    1.000
    O53      O        0.30284    0.51289    0.43646    1.000
    O54      O        0.35774    0.54073    0.46298    1.000
    O55      O        0.24501    0.57188    0.49404    1.000
    O56      O        0.24289    0.57921    0.40267    1.000
    C339     C        0.32630    0.50500    0.45061    1.000
    C340     C        0.31684    0.44784    0.45318    1.000
    C341     C        0.34364    0.43683    0.46718    1.000
    H183     H        0.36827    0.46523    0.47513    1.000
    C342     C        0.33537    0.38383    0.47005    1.000
    H184     H        0.35407    0.37713    0.47973    1.000
    C343     C        0.29917    0.34203    0.45843    1.000
    C344     C        0.26857    0.35243    0.44505    1.000
    H185     H        0.24107    0.32353    0.43813    1.000
    C345     C        0.27887    0.40573    0.44197    1.000
    H186     H        0.25997    0.41263    0.43243    1.000
    C346     C        0.28807    0.28673    0.46017    1.000
    C347     C        0.28317    0.24223    0.46216    1.000
    C348     C        0.27957    0.18963    0.46342    1.000
    C349     C        0.30917    0.18053    0.47706    1.000
    C350     C        0.34097    0.21943    0.49138    1.000
    H187     H        0.34247    0.25323    0.49113    1.000
    C351     C        0.36857    0.21063    0.50505    1.000
    C352     C        0.24587    0.14873    0.44977    1.000
    C353     C        0.21207    0.15563    0.43519    1.000
    H188     H        0.21177    0.18853    0.43493    1.000
    C354     C        0.18167    0.11703    0.42217    1.000
    C355     C        0.19257    0.55283    0.36740    1.000
    H189     H        0.20357    0.52963    0.37283    1.000
    C356     C        0.16417    0.54073    0.34955    1.000
    H190     H        0.15567    0.50823    0.34323    1.000
    C357     C        0.05037    0.56883    0.28316    1.000
    C358     C        0.07007    0.62323    0.29023    1.000
    H191     H        0.09287    0.63493    0.30103    1.000
    C359     C        0.05707    0.65613    0.28223    1.000
    H192     H        0.07157    0.69163    0.28693    1.000
    C360     C        0.02067    0.63873    0.26633    1.000
    H193     H        0.00957    0.66243    0.26143    1.000
    C361     C        0.00187    0.59003    0.25793    1.000
    H194     H        0.98007    0.58183    0.24693    1.000
    C362     C        0.01397    0.55013    0.26523    1.000
    C363     C        0.87477    0.48013    0.20567    1.000
    H195     H        0.88727    0.51503    0.21073    1.000
    C364     C        0.83547    0.46003    0.19024    1.000
    H196     H        0.82247    0.48213    0.18533    1.000
    O57      O        0.96950    0.84623    0.76980    1.000
    O58      O        0.02440    0.87407    0.79632    1.000
    O59      O        0.91167    0.90522    0.82738    1.000
    O60      O        0.90955    0.91255    0.73601    1.000
    C365     C        0.99296    0.83834    0.78395    1.000
    C366     C        0.98350    0.78118    0.78652    1.000
    C367     C        0.01030    0.77017    0.80052    1.000
    H197     H        0.03493    0.79857    0.80847    1.000
    C368     C        0.00203    0.71717    0.80339    1.000
    H198     H        0.02073    0.71047    0.81307    1.000
    C369     C        0.96583    0.67537    0.79177    1.000
    C370     C        0.93523    0.68577    0.77839    1.000
    H199     H        0.90773    0.65687    0.77147    1.000
    C371     C        0.94553    0.73907    0.77531    1.000
    H200     H        0.92663    0.74597    0.76577    1.000
    C372     C        0.95473    0.62007    0.79351    1.000
    C373     C        0.94983    0.57557    0.79550    1.000
    C374     C        0.94623    0.52297    0.79676    1.000
    C375     C        0.97583    0.51387    0.81040    1.000
    C376     C        0.00763    0.55277    0.82472    1.000
    H201     H        0.00913    0.58657    0.82447    1.000
    C377     C        0.03523    0.54397    0.83839    1.000
    C378     C        0.91253    0.48207    0.78311    1.000
    C379     C        0.87873    0.48897    0.76853    1.000
    H202     H        0.87843    0.52187    0.76827    1.000
    C380     C        0.84833    0.45037    0.75551    1.000
    C381     C        0.85923    0.88617    0.70074    1.000
    H203     H        0.87023    0.86297    0.70617    1.000
    C382     C        0.83083    0.87407    0.68289    1.000
    H204     H        0.82233    0.84157    0.67657    1.000
    C383     C        0.71703    0.90217    0.61650    1.000
    C384     C        0.73673    0.95657    0.62357    1.000
    H205     H        0.75953    0.96827    0.63437    1.000
    C385     C        0.72373    0.98947    0.61557    1.000
    H206     H        0.73823    0.02497    0.62027    1.000
    C386     C        0.68733    0.97207    0.59967    1.000
    H207     H        0.67623    0.99577    0.59477    1.000
    C387     C        0.66853    0.92337    0.59127    1.000
    H208     H        0.64673    0.91517    0.58027    1.000
    C388     C        0.68063    0.88347    0.59857    1.000
    C389     C        0.54143    0.81347    0.53901    1.000
    H209     H        0.55393    0.84837    0.54407    1.000
    C390     C        0.50213    0.79337    0.52358    1.000
    H210     H        0.48913    0.81547    0.51867    1.000
    O61      O        0.54339    0.36383    0.10313    1.000
    O62      O        0.51633    0.30893    0.12965    1.000
    O63      O        0.66021    0.42166    0.16071    1.000
    O64      O        0.66966    0.42378    0.06934    1.000
    C391     C        0.51204    0.34037    0.11728    1.000
    C392     C        0.46434    0.34983    0.11985    1.000
    C393     C        0.42653    0.32303    0.13385    1.000
    H211     H        0.43030    0.29840    0.14180    1.000
    C394     C        0.38180    0.33130    0.13672    1.000
    H212     H        0.35640    0.31260    0.14640    1.000
    C395     C        0.37620    0.36750    0.12510    1.000
    C396     C        0.41720    0.39810    0.11172    1.000
    H213     H        0.41580    0.42560    0.10480    1.000
    C397     C        0.46020    0.38780    0.10864    1.000
    H214     H        0.48600    0.40670    0.09910    1.000
    C398     C        0.33200    0.37860    0.12684    1.000
    C399     C        0.29240    0.38350    0.12883    1.000
    C400     C        0.24340    0.38710    0.13009    1.000
    C401     C        0.20470    0.35750    0.14373    1.000
    C402     C        0.21180    0.32570    0.15805    1.000
    H215     H        0.24410    0.32420    0.15780    1.000
    C403     C        0.17540    0.29810    0.17172    1.000
    C404     C        0.23620    0.42080    0.11644    1.000
    C405     C        0.27690    0.45460    0.10186    1.000
    H216     H        0.31010    0.45490    0.10160    1.000
    C406     C        0.26870    0.48500    0.08884    1.000
    C407     C        0.69360    0.47410    0.03407    1.000
    H217     H        0.65940    0.46310    0.03950    1.000
    C408     C        0.70990    0.50250    0.01622    1.000
    H218     H        0.68590    0.51100    0.00990    1.000
    C409     C        0.85180    0.61630    0.94983    1.000
    C410     C        0.88650    0.59660    0.95690    1.000
    H219     H        0.87540    0.57380    0.96770    1.000
    C411     C        0.93240    0.60960    0.94890    1.000
    H220     H        0.95340    0.59510    0.95360    1.000
    C412     C        0.95140    0.64600    0.93300    1.000
    H221     H        0.98620    0.65710    0.92810    1.000
    C413     C        0.92150    0.66480    0.92460    1.000
    H222     H        0.93510    0.68660    0.91360    1.000
    C414     C        0.86950    0.65270    0.93190    1.000
    C415     C        0.93870    0.79190    0.87234    1.000
    H223     H        0.96110    0.77940    0.87740    1.000
    C416     C        0.95790    0.83120    0.85691    1.000
    H224     H        0.99300    0.84420    0.85200    1.000
    O65      O        0.21006    0.69716    0.43646    1.000
    O66      O        0.18300    0.64226    0.46298    1.000
    O67      O        0.32688    0.75499    0.49404    1.000
    O68      O        0.33633    0.75711    0.40267    1.000
    C417     C        0.17871    0.67370    0.45061    1.000
    C418     C        0.13101    0.68316    0.45318    1.000
    C419     C        0.09320    0.65636    0.46718    1.000
    H225     H        0.09697    0.63173    0.47513    1.000
    C420     C        0.04847    0.66463    0.47005    1.000
    H226     H        0.02307    0.64593    0.47973    1.000
    C421     C        0.04287    0.70083    0.45843    1.000
    C422     C        0.08387    0.73143    0.44505    1.000
    H227     H        0.08247    0.75893    0.43813    1.000
    C423     C        0.12687    0.72113    0.44197    1.000
    H228     H        0.15267    0.74003    0.43243    1.000
    C424     C        0.99867    0.71193    0.46017    1.000
    C425     C        0.95907    0.71683    0.46216    1.000
    C426     C        0.91007    0.72043    0.46342    1.000
    C427     C        0.87137    0.69083    0.47706    1.000
    C428     C        0.87847    0.65903    0.49138    1.000
    H229     H        0.91077    0.65753    0.49113    1.000
    C429     C        0.84207    0.63143    0.50505    1.000
    C430     C        0.90287    0.75413    0.44977    1.000
    C431     C        0.94357    0.78793    0.43519    1.000
    H230     H        0.97677    0.78823    0.43493    1.000
    C432     C        0.93537    0.81833    0.42217    1.000
    C433     C        0.36027    0.80743    0.36740    1.000
    H231     H        0.32607    0.79643    0.37283    1.000
    C434     C        0.37657    0.83583    0.34955    1.000
    H232     H        0.35257    0.84433    0.34323    1.000
    C435     C        0.51847    0.94963    0.28316    1.000
    C436     C        0.55317    0.92993    0.29023    1.000
    H233     H        0.54207    0.90713    0.30103    1.000
    C437     C        0.59907    0.94293    0.28223    1.000
    H234     H        0.62007    0.92843    0.28693    1.000
    C438     C        0.61807    0.97933    0.26633    1.000
    H235     H        0.65287    0.99043    0.26143    1.000
    C439     C        0.58817    0.99813    0.25793    1.000
    H236     H        0.60177    0.01993    0.24693    1.000
    C440     C        0.53617    0.98603    0.26523    1.000
    C441     C        0.60537    0.12523    0.20567    1.000
    H237     H        0.62777    0.11273    0.21073    1.000
    C442     C        0.62457    0.16453    0.19024    1.000
    H238     H        0.65967    0.17753    0.18533    1.000
    O69      O        0.87672    0.03050    0.76980    1.000
    O70      O        0.84966    0.97560    0.79632    1.000
    O71      O        0.99354    0.08833    0.82738    1.000
    O72      O        0.00299    0.09045    0.73601    1.000
    C443     C        0.84537    0.00704    0.78395    1.000
    C444     C        0.79767    0.01650    0.78652    1.000
    C445     C        0.75986    0.98970    0.80052    1.000
    H239     H        0.76363    0.96507    0.80847    1.000
    C446     C        0.71513    0.99797    0.80339    1.000
    H240     H        0.68973    0.97927    0.81307    1.000
    C447     C        0.70953    0.03417    0.79177    1.000
    C448     C        0.75053    0.06477    0.77839    1.000
    H241     H        0.74913    0.09227    0.77147    1.000
    C449     C        0.79353    0.05447    0.77531    1.000
    H242     H        0.81933    0.07337    0.76577    1.000
    C450     C        0.66533    0.04527    0.79351    1.000
    C451     C        0.62573    0.05017    0.79550    1.000
    C452     C        0.57673    0.05377    0.79676    1.000
    C453     C        0.53803    0.02417    0.81040    1.000
    C454     C        0.54513    0.99237    0.82472    1.000
    H243     H        0.57743    0.99087    0.82447    1.000
    C455     C        0.50873    0.96477    0.83839    1.000
    C456     C        0.56953    0.08747    0.78311    1.000
    C457     C        0.61023    0.12127    0.76853    1.000
    H244     H        0.64343    0.12157    0.76827    1.000
    C458     C        0.60203    0.15167    0.75551    1.000
    C459     C        0.02693    0.14077    0.70074    1.000
    H245     H        0.99273    0.12977    0.70617    1.000
    C460     C        0.04323    0.16917    0.68289    1.000
    H246     H        0.01923    0.17767    0.67657    1.000
    C461     C        0.18513    0.28297    0.61650    1.000
    C462     C        0.21983    0.26327    0.62357    1.000
    H247     H        0.20873    0.24047    0.63437    1.000
    C463     C        0.26573    0.27627    0.61557    1.000
    H248     H        0.28673    0.26177    0.62027    1.000
    C464     C        0.28473    0.31267    0.59967    1.000
    H249     H        0.31953    0.32377    0.59477    1.000
    C465     C        0.25483    0.33147    0.59127    1.000
    H250     H        0.26843    0.35327    0.58027    1.000
    C466     C        0.20283    0.31937    0.59857    1.000
    C467     C        0.27203    0.45857    0.53901    1.000
    H251     H        0.29443    0.44607    0.54407    1.000
    C468     C        0.29123    0.49787    0.52358    1.000
    H252     H        0.32633    0.51087    0.51867    1.000
    Zr1      Zr       0.70816    0.29184    0.13615    1.000
    O73      O        0.71358    0.28642    0.10366    1.000
    C469     C        0.71742    0.28258    0.06190    1.000
    C470     C        0.73175    0.26825    0.04296    1.000
    C471     C        0.75880    0.24120    0.00820    1.000
    C472     C        0.77320    0.22680    0.98910    1.000
    C473     C        0.78500    0.21500    0.97520    1.000
    C474     C        0.80120    0.19880    0.95716    1.000
    C475     C        0.83380    0.16620    0.92486    1.000
    C476     C        0.85250    0.14750    0.90771    1.000
    C477     C        0.86640    0.13360    0.89520    1.000
    C478     C        0.88640    0.11360    0.87965    1.000
    Zr2      Zr       0.37483    0.62517    0.46949    1.000
    O74      O        0.38025    0.61975    0.43699    1.000
    C479     C        0.38409    0.61591    0.39523    1.000
    C480     C        0.39842    0.60158    0.37629    1.000
    C481     C        0.42547    0.57453    0.34153    1.000
    C482     C        0.43987    0.56013    0.32243    1.000
    C483     C        0.45167    0.54833    0.30853    1.000
    C484     C        0.46787    0.53213    0.29049    1.000
    C485     C        0.50047    0.49953    0.25819    1.000
    C486     C        0.51917    0.48083    0.24104    1.000
    C487     C        0.53307    0.46693    0.22853    1.000
    C488     C        0.55307    0.44693    0.21298    1.000
    Zr3      Zr       0.04149    0.95851    0.80282    1.000
    O75      O        0.04691    0.95309    0.77033    1.000
    C489     C        0.05075    0.94925    0.72857    1.000
    C490     C        0.06508    0.93492    0.70963    1.000
    C491     C        0.09213    0.90787    0.67487    1.000
    C492     C        0.10653    0.89347    0.65577    1.000
    C493     C        0.11833    0.88167    0.64187    1.000
    C494     C        0.13453    0.86547    0.62383    1.000
    C495     C        0.16713    0.83287    0.59153    1.000
    C496     C        0.18583    0.81417    0.57438    1.000
    C497     C        0.19973    0.80027    0.56187    1.000
    C498     C        0.21973    0.78027    0.54632    1.000
    Zr4      Zr       0.70816    0.41632    0.13615    1.000
    O76      O        0.71358    0.42716    0.10366    1.000
    C499     C        0.71742    0.43484    0.06190    1.000
    C500     C        0.73175    0.46350    0.04296    1.000
    C501     C        0.75880    0.51760    0.00820    1.000
    C502     C        0.77320    0.54640    0.98910    1.000
    C503     C        0.78500    0.57000    0.97520    1.000
    C504     C        0.80120    0.60240    0.95716    1.000
    C505     C        0.83380    0.66760    0.92486    1.000
    C506     C        0.85250    0.70500    0.90771    1.000
    C507     C        0.86640    0.73280    0.89520    1.000
    C508     C        0.88640    0.77280    0.87965    1.000
    Zr5      Zr       0.37483    0.74965    0.46949    1.000
    O77      O        0.38025    0.76049    0.43699    1.000
    C509     C        0.38409    0.76817    0.39523    1.000
    C510     C        0.39842    0.79683    0.37629    1.000
    C511     C        0.42547    0.85093    0.34153    1.000
    C512     C        0.43987    0.87973    0.32243    1.000
    C513     C        0.45167    0.90333    0.30853    1.000
    C514     C        0.46787    0.93573    0.29049    1.000
    C515     C        0.50047    0.00093    0.25819    1.000
    C516     C        0.51917    0.03833    0.24104    1.000
    C517     C        0.53307    0.06613    0.22853    1.000
    C518     C        0.55307    0.10613    0.21298    1.000
    Zr6      Zr       0.04149    0.08299    0.80282    1.000
    O78      O        0.04691    0.09383    0.77033    1.000
    C519     C        0.05075    0.10151    0.72857    1.000
    C520     C        0.06508    0.13017    0.70963    1.000
    C521     C        0.09213    0.18427    0.67487    1.000
    C522     C        0.10653    0.21307    0.65577    1.000
    C523     C        0.11833    0.23667    0.64187    1.000
    C524     C        0.13453    0.26907    0.62383    1.000
    C525     C        0.16713    0.33427    0.59153    1.000
    C526     C        0.18583    0.37167    0.57438    1.000
    C527     C        0.19973    0.39947    0.56187    1.000
    C528     C        0.21973    0.43947    0.54632    1.000
    Zr7      Zr       0.58368    0.29184    0.13615    1.000
    O79      O        0.57284    0.28642    0.10366    1.000
    C529     C        0.56516    0.28258    0.06190    1.000
    C530     C        0.53650    0.26825    0.04296    1.000
    C531     C        0.48240    0.24120    0.00820    1.000
    C532     C        0.45360    0.22680    0.98910    1.000
    C533     C        0.43000    0.21500    0.97520    1.000
    C534     C        0.39760    0.19880    0.95716    1.000
    C535     C        0.33240    0.16620    0.92486    1.000
    C536     C        0.29500    0.14750    0.90771    1.000
    C537     C        0.26720    0.13360    0.89520    1.000
    C538     C        0.22720    0.11360    0.87965    1.000
    Zr8      Zr       0.25035    0.62517    0.46949    1.000
    O80      O        0.23951    0.61975    0.43699    1.000
    C539     C        0.23183    0.61591    0.39523    1.000
    C540     C        0.20317    0.60158    0.37629    1.000
    C541     C        0.14907    0.57453    0.34153    1.000
    C542     C        0.12027    0.56013    0.32243    1.000
    C543     C        0.09667    0.54833    0.30853    1.000
    C544     C        0.06427    0.53213    0.29049    1.000
    C545     C        0.99907    0.49953    0.25819    1.000
    C546     C        0.96167    0.48083    0.24104    1.000
    C547     C        0.93387    0.46693    0.22853    1.000
    C548     C        0.89387    0.44693    0.21298    1.000
    Zr9      Zr       0.91701    0.95851    0.80282    1.000
    O81      O        0.90617    0.95309    0.77033    1.000
    C549     C        0.89849    0.94925    0.72857    1.000
    C550     C        0.86983    0.93492    0.70963    1.000
    C551     C        0.81573    0.90787    0.67487    1.000
    C552     C        0.78693    0.89347    0.65577    1.000
    C553     C        0.76333    0.88167    0.64187    1.000
    C554     C        0.73093    0.86547    0.62383    1.000
    C555     C        0.66573    0.83287    0.59153    1.000
    C556     C        0.62833    0.81417    0.57438    1.000
    C557     C        0.60053    0.80027    0.56187    1.000
    C558     C        0.56053    0.78027    0.54632    1.000
    Zr10     Zr       0.62514    0.25028    0.09505    1.000
    O82      O        0.63164    0.26328    0.12423    1.000
    C559     C        0.61135    0.22270    0.16661    1.000
    C560     C        0.59165    0.18330    0.18274    1.000
    Zr11     Zr       0.29181    0.58361    0.42838    1.000
    O83      O        0.29831    0.59661    0.45756    1.000
    C561     C        0.27802    0.55603    0.49994    1.000
    C562     C        0.25832    0.51663    0.51607    1.000
    Zr12     Zr       0.95847    0.91695    0.76172    1.000
    O84      O        0.96497    0.92995    0.79090    1.000
    C563     C        0.94468    0.88937    0.83328    1.000
    C564     C        0.92498    0.84997    0.84941    1.000
    Zr13     Zr       0.74972    0.37486    0.09505    1.000
    O85      O        0.73672    0.36836    0.12423    1.000
    C565     C        0.77730    0.38865    0.16661    1.000
    C566     C        0.81670    0.40835    0.18274    1.000
    Zr14     Zr       0.41639    0.70819    0.42838    1.000
    O86      O        0.40339    0.70169    0.45756    1.000
    C567     C        0.44397    0.72198    0.49994    1.000
    C568     C        0.48337    0.74168    0.51607    1.000
    Zr15     Zr       0.08305    0.04153    0.76172    1.000
    O87      O        0.07005    0.03503    0.79090    1.000
    C569     C        0.11063    0.05532    0.83328    1.000
    C570     C        0.15003    0.07502    0.84941    1.000
    Zr16     Zr       0.62514    0.37486    0.09505    1.000
    O88      O        0.63164    0.36836    0.12423    1.000
    C571     C        0.61135    0.38865    0.16661    1.000
    C572     C        0.59165    0.40835    0.18274    1.000
    Zr17     Zr       0.29181    0.70819    0.42838    1.000
    O89      O        0.29831    0.70169    0.45756    1.000
    C573     C        0.27802    0.72198    0.49994    1.000
    C574     C        0.25832    0.74168    0.51607    1.000
    Zr18     Zr       0.95847    0.04153    0.76172    1.000
    O90      O        0.96497    0.03503    0.79090    1.000
    C575     C        0.94468    0.05532    0.83328    1.000
    C576     C        0.92498    0.07502    0.84941    1.000
    O91      O        0.66667    0.33333    0.08924    1.000
    O92      O        0.66667    0.33333    0.15047    1.000
    O93      O        0.33333    0.66667    0.42257    1.000
    O94      O        0.33333    0.66667    0.48380    1.000
    O95      O        0.00000    0.00000    0.75591    1.000
    O96      O        0.00000    0.00000    0.81714    1.000
    O97      O        0.17956    0.54339    0.89687    1.000
    O98      O        0.20740    0.51633    0.87035    1.000
    O99      O        0.23855    0.66021    0.83929    1.000
    O100     O        0.24588    0.66966    0.93066    1.000
    C577     C        0.17167    0.51204    0.88272    1.000
    C578     C        0.11451    0.46434    0.88015    1.000
    C579     C        0.10350    0.42653    0.86615    1.000
    H253     H        0.13190    0.43030    0.85820    1.000
    C580     C        0.05050    0.38180    0.86328    1.000
    H254     H        0.04380    0.35640    0.85360    1.000
    C581     C        0.00870    0.37620    0.87490    1.000
    C582     C        0.01910    0.41720    0.88828    1.000
    H255     H        0.99020    0.41580    0.89520    1.000
    C583     C        0.07240    0.46020    0.89136    1.000
    H256     H        0.07930    0.48600    0.90090    1.000
    C584     C        0.95340    0.33200    0.87316    1.000
    C585     C        0.90890    0.29240    0.87117    1.000
    C586     C        0.85630    0.24340    0.86991    1.000
    C587     C        0.84720    0.20470    0.85627    1.000
    C588     C        0.88610    0.21180    0.84195    1.000
    H257     H        0.91990    0.24410    0.84220    1.000
    C589     C        0.87730    0.17540    0.82828    1.000
    C590     C        0.81540    0.23620    0.88356    1.000
    C591     C        0.82230    0.27690    0.89814    1.000
    H258     H        0.85520    0.31010    0.89840    1.000
    C592     C        0.78370    0.26870    0.91116    1.000
    C593     C        0.21950    0.69360    0.96593    1.000
    H259     H        0.19630    0.65940    0.96050    1.000
    C594     C        0.20740    0.70990    0.98378    1.000
    H260     H        0.17490    0.68590    0.99010    1.000
    C595     C        0.23550    0.85180    0.05017    1.000
    C596     C        0.28990    0.88650    0.04310    1.000
    H261     H        0.30160    0.87540    0.03230    1.000
    C597     C        0.32280    0.93240    0.05110    1.000
    H262     H        0.35830    0.95340    0.04640    1.000
    C598     C        0.30540    0.95140    0.06700    1.000
    H263     H        0.32910    0.98620    0.07190    1.000
    C599     C        0.25670    0.92150    0.07540    1.000
    H264     H        0.24850    0.93510    0.08640    1.000
    C600     C        0.21680    0.86950    0.06810    1.000
    C601     C        0.14680    0.93870    0.12766    1.000
    H265     H        0.18170    0.96110    0.12260    1.000
    C602     C        0.12670    0.95790    0.14309    1.000
    H266     H        0.14880    0.99300    0.14800    1.000
    O101     O        0.84623    0.87672    0.23020    1.000
    O102     O        0.87407    0.84966    0.20368    1.000
    O103     O        0.90522    0.99354    0.17262    1.000
    O104     O        0.91255    0.00299    0.26399    1.000
    C603     C        0.83834    0.84537    0.21605    1.000
    C604     C        0.78118    0.79767    0.21348    1.000
    C605     C        0.77017    0.75986    0.19948    1.000
    H267     H        0.79857    0.76363    0.19153    1.000
    C606     C        0.71717    0.71513    0.19661    1.000
    H268     H        0.71047    0.68973    0.18693    1.000
    C607     C        0.67537    0.70953    0.20823    1.000
    C608     C        0.68577    0.75053    0.22161    1.000
    H269     H        0.65687    0.74913    0.22853    1.000
    C609     C        0.73907    0.79353    0.22469    1.000
    H270     H        0.74597    0.81933    0.23423    1.000
    C610     C        0.62007    0.66533    0.20649    1.000
    C611     C        0.57557    0.62573    0.20450    1.000
    C612     C        0.52297    0.57673    0.20324    1.000
    C613     C        0.51387    0.53803    0.18960    1.000
    C614     C        0.55277    0.54513    0.17528    1.000
    H271     H        0.58657    0.57743    0.17553    1.000
    C615     C        0.54397    0.50873    0.16161    1.000
    C616     C        0.48207    0.56953    0.21689    1.000
    C617     C        0.48897    0.61023    0.23147    1.000
    H272     H        0.52187    0.64343    0.23173    1.000
    C618     C        0.45037    0.60203    0.24449    1.000
    C619     C        0.88617    0.02693    0.29926    1.000
    H273     H        0.86297    0.99273    0.29383    1.000
    C620     C        0.87407    0.04323    0.31711    1.000
    H274     H        0.84157    0.01923    0.32343    1.000
    C621     C        0.90217    0.18513    0.38350    1.000
    C622     C        0.95657    0.21983    0.37643    1.000
    H275     H        0.96827    0.20873    0.36563    1.000
    C623     C        0.98947    0.26573    0.38443    1.000
    H276     H        0.02497    0.28673    0.37973    1.000
    C624     C        0.97207    0.28473    0.40033    1.000
    H277     H        0.99577    0.31953    0.40523    1.000
    C625     C        0.92337    0.25483    0.40873    1.000
    H278     H        0.91517    0.26843    0.41973    1.000
    C626     C        0.88347    0.20283    0.40143    1.000
    C627     C        0.81347    0.27203    0.46099    1.000
    H279     H        0.84837    0.29443    0.45593    1.000
    C628     C        0.79337    0.29123    0.47642    1.000
    H280     H        0.81547    0.32633    0.48133    1.000
    O105     O        0.51289    0.21006    0.56354    1.000
    O106     O        0.54073    0.18300    0.53702    1.000
    O107     O        0.57188    0.32688    0.50596    1.000
    O108     O        0.57921    0.33633    0.59733    1.000
    C629     C        0.50500    0.17871    0.54939    1.000
    C630     C        0.44784    0.13101    0.54682    1.000
    C631     C        0.43683    0.09320    0.53282    1.000
    H281     H        0.46523    0.09697    0.52487    1.000
    C632     C        0.38383    0.04847    0.52995    1.000
    H282     H        0.37713    0.02307    0.52027    1.000
    C633     C        0.34203    0.04287    0.54157    1.000
    C634     C        0.35243    0.08387    0.55495    1.000
    H283     H        0.32353    0.08247    0.56187    1.000
    C635     C        0.40573    0.12687    0.55803    1.000
    H284     H        0.41263    0.15267    0.56757    1.000
    C636     C        0.28673    0.99867    0.53983    1.000
    C637     C        0.24223    0.95907    0.53784    1.000
    C638     C        0.18963    0.91007    0.53658    1.000
    C639     C        0.18053    0.87137    0.52294    1.000
    C640     C        0.21943    0.87847    0.50862    1.000
    H285     H        0.25323    0.91077    0.50887    1.000
    C641     C        0.21063    0.84207    0.49495    1.000
    C642     C        0.14873    0.90287    0.55023    1.000
    C643     C        0.15563    0.94357    0.56481    1.000
    H286     H        0.18853    0.97677    0.56507    1.000
    C644     C        0.11703    0.93537    0.57783    1.000
    C645     C        0.55283    0.36027    0.63260    1.000
    H287     H        0.52963    0.32607    0.62717    1.000
    C646     C        0.54073    0.37657    0.65045    1.000
    H288     H        0.50823    0.35257    0.65677    1.000
    C647     C        0.56883    0.51847    0.71684    1.000
    C648     C        0.62323    0.55317    0.70977    1.000
    H289     H        0.63493    0.54207    0.69897    1.000
    C649     C        0.65613    0.59907    0.71777    1.000
    H290     H        0.69163    0.62007    0.71307    1.000
    C650     C        0.63873    0.61807    0.73367    1.000
    H291     H        0.66243    0.65287    0.73857    1.000
    C651     C        0.59003    0.58817    0.74207    1.000
    H292     H        0.58183    0.60177    0.75307    1.000
    C652     C        0.55013    0.53617    0.73477    1.000
    C653     C        0.48013    0.60537    0.79433    1.000
    H293     H        0.51503    0.62777    0.78927    1.000
    C654     C        0.46003    0.62457    0.80976    1.000
    H294     H        0.48213    0.65967    0.81467    1.000
    O109     O        0.36383    0.82044    0.89687    1.000
    O110     O        0.30893    0.79260    0.87035    1.000
    O111     O        0.42166    0.76145    0.83929    1.000
    O112     O        0.42378    0.75412    0.93066    1.000
    C655     C        0.34037    0.82833    0.88272    1.000
    C656     C        0.34983    0.88549    0.88015    1.000
    C657     C        0.32303    0.89650    0.86615    1.000
    H295     H        0.29840    0.86810    0.85820    1.000
    C658     C        0.33130    0.94950    0.86328    1.000
    H296     H        0.31260    0.95620    0.85360    1.000
    C659     C        0.36750    0.99130    0.87490    1.000
    C660     C        0.39810    0.98090    0.88828    1.000
    H297     H        0.42560    0.00980    0.89520    1.000
    C661     C        0.38780    0.92760    0.89136    1.000
    H298     H        0.40670    0.92070    0.90090    1.000
    C662     C        0.37860    0.04660    0.87316    1.000
    C663     C        0.38350    0.09110    0.87117    1.000
    C664     C        0.38710    0.14370    0.86991    1.000
    C665     C        0.35750    0.15280    0.85627    1.000
    C666     C        0.32570    0.11390    0.84195    1.000
    H299     H        0.32420    0.08010    0.84220    1.000
    C667     C        0.29810    0.12270    0.82828    1.000
    C668     C        0.42080    0.18460    0.88356    1.000
    C669     C        0.45460    0.17770    0.89814    1.000
    H300     H        0.45490    0.14480    0.89840    1.000
    C670     C        0.48500    0.21630    0.91116    1.000
    C671     C        0.47410    0.78050    0.96593    1.000
    H301     H        0.46310    0.80370    0.96050    1.000
    C672     C        0.50250    0.79260    0.98378    1.000
    H302     H        0.51100    0.82510    0.99010    1.000
    C673     C        0.61630    0.76450    0.05017    1.000
    C674     C        0.59660    0.71010    0.04310    1.000
    H303     H        0.57380    0.69840    0.03230    1.000
    C675     C        0.60960    0.67720    0.05110    1.000
    H304     H        0.59510    0.64170    0.04640    1.000
    C676     C        0.64600    0.69460    0.06700    1.000
    H305     H        0.65710    0.67090    0.07190    1.000
    C677     C        0.66480    0.74330    0.07540    1.000
    H306     H        0.68660    0.75150    0.08640    1.000
    C678     C        0.65270    0.78320    0.06810    1.000
    C679     C        0.79190    0.85320    0.12766    1.000
    H307     H        0.77940    0.81830    0.12260    1.000
    C680     C        0.83120    0.87330    0.14309    1.000
    H308     H        0.84420    0.85120    0.14800    1.000
    O113     O        0.03050    0.15377    0.23020    1.000
    O114     O        0.97560    0.12593    0.20368    1.000
    O115     O        0.08833    0.09478    0.17262    1.000
    O116     O        0.09045    0.08745    0.26399    1.000
    C681     C        0.00704    0.16166    0.21605    1.000
    C682     C        0.01650    0.21882    0.21348    1.000
    C683     C        0.98970    0.22983    0.19948    1.000
    H309     H        0.96507    0.20143    0.19153    1.000
    C684     C        0.99797    0.28283    0.19661    1.000
    H310     H        0.97927    0.28953    0.18693    1.000
    C685     C        0.03417    0.32463    0.20823    1.000
    C686     C        0.06477    0.31423    0.22161    1.000
    H311     H        0.09227    0.34313    0.22853    1.000
    C687     C        0.05447    0.26093    0.22469    1.000
    H312     H        0.07337    0.25403    0.23423    1.000
    C688     C        0.04527    0.37993    0.20649    1.000
    C689     C        0.05017    0.42443    0.20450    1.000
    C690     C        0.05377    0.47703    0.20324    1.000
    C691     C        0.02417    0.48613    0.18960    1.000
    C692     C        0.99237    0.44723    0.17528    1.000
    H313     H        0.99087    0.41343    0.17553    1.000
    C693     C        0.96477    0.45603    0.16161    1.000
    C694     C        0.08747    0.51793    0.21689    1.000
    C695     C        0.12127    0.51103    0.23147    1.000
    H314     H        0.12157    0.47813    0.23173    1.000
    C696     C        0.15167    0.54963    0.24449    1.000
    C697     C        0.14077    0.11383    0.29926    1.000
    H315     H        0.12977    0.13703    0.29383    1.000
    C698     C        0.16917    0.12593    0.31711    1.000
    H316     H        0.17767    0.15843    0.32343    1.000
    C699     C        0.28297    0.09783    0.38350    1.000
    C700     C        0.26327    0.04343    0.37643    1.000
    H317     H        0.24047    0.03173    0.36563    1.000
    C701     C        0.27627    0.01053    0.38443    1.000
    H318     H        0.26177    0.97503    0.37973    1.000
    C702     C        0.31267    0.02793    0.40033    1.000
    H319     H        0.32377    0.00423    0.40523    1.000
    C703     C        0.33147    0.07663    0.40873    1.000
    H320     H        0.35327    0.08483    0.41973    1.000
    C704     C        0.31937    0.11653    0.40143    1.000
    C705     C        0.45857    0.18653    0.46099    1.000
    H321     H        0.44607    0.15163    0.45593    1.000
    C706     C        0.49787    0.20663    0.47642    1.000
    H322     H        0.51087    0.18453    0.48133    1.000
    O117     O        0.69716    0.48711    0.56354    1.000
    O118     O        0.64226    0.45927    0.53702    1.000
    O119     O        0.75499    0.42812    0.50596    1.000
    O120     O        0.75711    0.42079    0.59733    1.000
    C707     C        0.67370    0.49500    0.54939    1.000
    C708     C        0.68316    0.55216    0.54682    1.000
    C709     C        0.65636    0.56317    0.53282    1.000
    H323     H        0.63173    0.53477    0.52487    1.000
    C710     C        0.66463    0.61617    0.52995    1.000
    H324     H        0.64593    0.62287    0.52027    1.000
    C711     C        0.70083    0.65797    0.54157    1.000
    C712     C        0.73143    0.64757    0.55495    1.000
    H325     H        0.75893    0.67647    0.56187    1.000
    C713     C        0.72113    0.59427    0.55803    1.000
    H326     H        0.74003    0.58737    0.56757    1.000
    C714     C        0.71193    0.71327    0.53983    1.000
    C715     C        0.71683    0.75777    0.53784    1.000
    C716     C        0.72043    0.81037    0.53658    1.000
    C717     C        0.69083    0.81947    0.52294    1.000
    C718     C        0.65903    0.78057    0.50862    1.000
    H327     H        0.65753    0.74677    0.50887    1.000
    C719     C        0.63143    0.78937    0.49495    1.000
    C720     C        0.75413    0.85127    0.55023    1.000
    C721     C        0.78793    0.84437    0.56481    1.000
    H328     H        0.78823    0.81147    0.56507    1.000
    C722     C        0.81833    0.88297    0.57783    1.000
    C723     C        0.80743    0.44717    0.63260    1.000
    H329     H        0.79643    0.47037    0.62717    1.000
    C724     C        0.83583    0.45927    0.65045    1.000
    H330     H        0.84433    0.49177    0.65677    1.000
    C725     C        0.94963    0.43117    0.71684    1.000
    C726     C        0.92993    0.37677    0.70977    1.000
    H331     H        0.90713    0.36507    0.69897    1.000
    C727     C        0.94293    0.34387    0.71777    1.000
    H332     H        0.92843    0.30837    0.71307    1.000
    C728     C        0.97933    0.36127    0.73367    1.000
    H333     H        0.99043    0.33757    0.73857    1.000
    C729     C        0.99813    0.40997    0.74207    1.000
    H334     H        0.01993    0.41817    0.75307    1.000
    C730     C        0.98603    0.44987    0.73477    1.000
    C731     C        0.12523    0.51987    0.79433    1.000
    H335     H        0.11273    0.48497    0.78927    1.000
    C732     C        0.16453    0.53997    0.80976    1.000
    H336     H        0.17753    0.51787    0.81467    1.000
    O121     O        0.45661    0.63617    0.89687    1.000
    O122     O        0.48367    0.69107    0.87035    1.000
    O123     O        0.33979    0.57834    0.83929    1.000
    O124     O        0.33034    0.57622    0.93066    1.000
    C733     C        0.48796    0.65963    0.88272    1.000
    C734     C        0.53566    0.65017    0.88015    1.000
    C735     C        0.57347    0.67697    0.86615    1.000
    H337     H        0.56970    0.70160    0.85820    1.000
    C736     C        0.61820    0.66870    0.86328    1.000
    H338     H        0.64360    0.68740    0.85360    1.000
    C737     C        0.62380    0.63250    0.87490    1.000
    C738     C        0.58280    0.60190    0.88828    1.000
    H339     H        0.58420    0.57440    0.89520    1.000
    C739     C        0.53980    0.61220    0.89136    1.000
    H340     H        0.51400    0.59330    0.90090    1.000
    C740     C        0.66800    0.62140    0.87316    1.000
    C741     C        0.70760    0.61650    0.87117    1.000
    C742     C        0.75660    0.61290    0.86991    1.000
    C743     C        0.79530    0.64250    0.85627    1.000
    C744     C        0.78820    0.67430    0.84195    1.000
    H341     H        0.75590    0.67580    0.84220    1.000
    C745     C        0.82460    0.70190    0.82828    1.000
    C746     C        0.76380    0.57920    0.88356    1.000
    C747     C        0.72310    0.54540    0.89814    1.000
    H342     H        0.68990    0.54510    0.89840    1.000
    C748     C        0.73130    0.51500    0.91116    1.000
    C749     C        0.30640    0.52590    0.96593    1.000
    H343     H        0.34060    0.53690    0.96050    1.000
    C750     C        0.29010    0.49750    0.98378    1.000
    H344     H        0.31410    0.48900    0.99010    1.000
    C751     C        0.14820    0.38370    0.05017    1.000
    C752     C        0.11350    0.40340    0.04310    1.000
    H345     H        0.12460    0.42620    0.03230    1.000
    C753     C        0.06760    0.39040    0.05110    1.000
    H346     H        0.04660    0.40490    0.04640    1.000
    C754     C        0.04860    0.35400    0.06700    1.000
    H347     H        0.01380    0.34290    0.07190    1.000
    C755     C        0.07850    0.33520    0.07540    1.000
    H348     H        0.06490    0.31340    0.08640    1.000
    C756     C        0.13050    0.34730    0.06810    1.000
    C757     C        0.06130    0.20810    0.12766    1.000
    H349     H        0.03890    0.22060    0.12260    1.000
    C758     C        0.04210    0.16880    0.14309    1.000
    H350     H        0.00700    0.15580    0.14800    1.000
    O125     O        0.12328    0.96950    0.23020    1.000
    O126     O        0.15034    0.02440    0.20368    1.000
    O127     O        0.00646    0.91167    0.17262    1.000
    O128     O        0.99701    0.90955    0.26399    1.000
    C759     C        0.15463    0.99296    0.21605    1.000
    C760     C        0.20233    0.98350    0.21348    1.000
    C761     C        0.24014    0.01030    0.19948    1.000
    H351     H        0.23637    0.03493    0.19153    1.000
    C762     C        0.28487    0.00203    0.19661    1.000
    H352     H        0.31027    0.02073    0.18693    1.000
    C763     C        0.29047    0.96583    0.20823    1.000
    C764     C        0.24947    0.93523    0.22161    1.000
    H353     H        0.25087    0.90773    0.22853    1.000
    C765     C        0.20647    0.94553    0.22469    1.000
    H354     H        0.18067    0.92663    0.23423    1.000
    C766     C        0.33467    0.95473    0.20649    1.000
    C767     C        0.37427    0.94983    0.20450    1.000
    C768     C        0.42327    0.94623    0.20324    1.000
    C769     C        0.46197    0.97583    0.18960    1.000
    C770     C        0.45487    0.00763    0.17528    1.000
    H355     H        0.42257    0.00913    0.17553    1.000
    C771     C        0.49127    0.03523    0.16161    1.000
    C772     C        0.43047    0.91253    0.21689    1.000
    C773     C        0.38977    0.87873    0.23147    1.000
    H356     H        0.35657    0.87843    0.23173    1.000
    C774     C        0.39797    0.84833    0.24449    1.000
    C775     C        0.97307    0.85923    0.29926    1.000
    H357     H        0.00727    0.87023    0.29383    1.000
    C776     C        0.95677    0.83083    0.31711    1.000
    H358     H        0.98077    0.82233    0.32343    1.000
    C777     C        0.81487    0.71703    0.38350    1.000
    C778     C        0.78017    0.73673    0.37643    1.000
    H359     H        0.79127    0.75953    0.36563    1.000
    C779     C        0.73427    0.72373    0.38443    1.000
    H360     H        0.71327    0.73823    0.37973    1.000
    C780     C        0.71527    0.68733    0.40033    1.000
    H361     H        0.68047    0.67623    0.40523    1.000
    C781     C        0.74517    0.66853    0.40873    1.000
    H362     H        0.73157    0.64673    0.41973    1.000
    C782     C        0.79717    0.68063    0.40143    1.000
    C783     C        0.72797    0.54143    0.46099    1.000
    H363     H        0.70557    0.55393    0.45593    1.000
    C784     C        0.70877    0.50213    0.47642    1.000
    H364     H        0.67367    0.48913    0.48133    1.000
    O129     O        0.78994    0.30284    0.56354    1.000
    O130     O        0.81700    0.35774    0.53702    1.000
    O131     O        0.67312    0.24501    0.50596    1.000
    O132     O        0.66367    0.24289    0.59733    1.000
    C785     C        0.82129    0.32630    0.54939    1.000
    C786     C        0.86899    0.31684    0.54682    1.000
    C787     C        0.90680    0.34364    0.53282    1.000
    H365     H        0.90303    0.36827    0.52487    1.000
    C788     C        0.95153    0.33537    0.52995    1.000
    H366     H        0.97693    0.35407    0.52027    1.000
    C789     C        0.95713    0.29917    0.54157    1.000
    C790     C        0.91613    0.26857    0.55495    1.000
    H367     H        0.91753    0.24107    0.56187    1.000
    C791     C        0.87313    0.27887    0.55803    1.000
    H368     H        0.84733    0.25997    0.56757    1.000
    C792     C        0.00133    0.28807    0.53983    1.000
    C793     C        0.04093    0.28317    0.53784    1.000
    C794     C        0.08993    0.27957    0.53658    1.000
    C795     C        0.12863    0.30917    0.52294    1.000
    C796     C        0.12153    0.34097    0.50862    1.000
    H369     H        0.08923    0.34247    0.50887    1.000
    C797     C        0.15793    0.36857    0.49495    1.000
    C798     C        0.09713    0.24587    0.55023    1.000
    C799     C        0.05643    0.21207    0.56481    1.000
    H370     H        0.02323    0.21177    0.56507    1.000
    C800     C        0.06463    0.18167    0.57783    1.000
    C801     C        0.63973    0.19257    0.63260    1.000
    H371     H        0.67393    0.20357    0.62717    1.000
    C802     C        0.62343    0.16417    0.65045    1.000
    H372     H        0.64743    0.15567    0.65677    1.000
    C803     C        0.48153    0.05037    0.71684    1.000
    C804     C        0.44683    0.07007    0.70977    1.000
    H373     H        0.45793    0.09287    0.69897    1.000
    C805     C        0.40093    0.05707    0.71777    1.000
    H374     H        0.37993    0.07157    0.71307    1.000
    C806     C        0.38193    0.02067    0.73367    1.000
    H375     H        0.34713    0.00957    0.73857    1.000
    C807     C        0.41183    0.00187    0.74207    1.000
    H376     H        0.39823    0.98007    0.75307    1.000
    C808     C        0.46383    0.01397    0.73477    1.000
    C809     C        0.39463    0.87477    0.79433    1.000
    H377     H        0.37223    0.88727    0.78927    1.000
    C810     C        0.37543    0.83547    0.80976    1.000
    H378     H        0.34033    0.82247    0.81467    1.000
    O133     O        0.45661    0.82044    0.89687    1.000
    O134     O        0.48367    0.79260    0.87035    1.000
    O135     O        0.33979    0.76145    0.83929    1.000
    O136     O        0.33034    0.75412    0.93066    1.000
    C811     C        0.48796    0.82833    0.88272    1.000
    C812     C        0.53566    0.88549    0.88015    1.000
    C813     C        0.57347    0.89650    0.86615    1.000
    H379     H        0.56970    0.86810    0.85820    1.000
    C814     C        0.61820    0.94950    0.86328    1.000
    H380     H        0.64360    0.95620    0.85360    1.000
    C815     C        0.62380    0.99130    0.87490    1.000
    C816     C        0.58280    0.98090    0.88828    1.000
    H381     H        0.58420    0.00980    0.89520    1.000
    C817     C        0.53980    0.92760    0.89136    1.000
    H382     H        0.51400    0.92070    0.90090    1.000
    C818     C        0.66800    0.04660    0.87316    1.000
    C819     C        0.70760    0.09110    0.87117    1.000
    C820     C        0.75660    0.14370    0.86991    1.000
    C821     C        0.79530    0.15280    0.85627    1.000
    C822     C        0.78820    0.11390    0.84195    1.000
    H383     H        0.75590    0.08010    0.84220    1.000
    C823     C        0.82460    0.12270    0.82828    1.000
    C824     C        0.76380    0.18460    0.88356    1.000
    C825     C        0.72310    0.17770    0.89814    1.000
    H384     H        0.68990    0.14480    0.89840    1.000
    C826     C        0.73130    0.21630    0.91116    1.000
    C827     C        0.30640    0.78050    0.96593    1.000
    H385     H        0.34060    0.80370    0.96050    1.000
    C828     C        0.29010    0.79260    0.98378    1.000
    H386     H        0.31410    0.82510    0.99010    1.000
    C829     C        0.14820    0.76450    0.05017    1.000
    C830     C        0.11350    0.71010    0.04310    1.000
    H387     H        0.12460    0.69840    0.03230    1.000
    C831     C        0.06760    0.67720    0.05110    1.000
    H388     H        0.04660    0.64170    0.04640    1.000
    C832     C        0.04860    0.69460    0.06700    1.000
    H389     H        0.01380    0.67090    0.07190    1.000
    C833     C        0.07850    0.74330    0.07540    1.000
    H390     H        0.06490    0.75150    0.08640    1.000
    C834     C        0.13050    0.78320    0.06810    1.000
    C835     C        0.06130    0.85320    0.12766    1.000
    H391     H        0.03890    0.81830    0.12260    1.000
    C836     C        0.04210    0.87330    0.14309    1.000
    H392     H        0.00700    0.85120    0.14800    1.000
    O137     O        0.12328    0.15377    0.23020    1.000
    O138     O        0.15034    0.12593    0.20368    1.000
    O139     O        0.00646    0.09478    0.17262    1.000
    O140     O        0.99701    0.08745    0.26399    1.000
    C837     C        0.15463    0.16166    0.21605    1.000
    C838     C        0.20233    0.21882    0.21348    1.000
    C839     C        0.24014    0.22983    0.19948    1.000
    H393     H        0.23637    0.20143    0.19153    1.000
    C840     C        0.28487    0.28283    0.19661    1.000
    H394     H        0.31027    0.28953    0.18693    1.000
    C841     C        0.29047    0.32463    0.20823    1.000
    C842     C        0.24947    0.31423    0.22161    1.000
    H395     H        0.25087    0.34313    0.22853    1.000
    C843     C        0.20647    0.26093    0.22469    1.000
    H396     H        0.18067    0.25403    0.23423    1.000
    C844     C        0.33467    0.37993    0.20649    1.000
    C845     C        0.37427    0.42443    0.20450    1.000
    C846     C        0.42327    0.47703    0.20324    1.000
    C847     C        0.46197    0.48613    0.18960    1.000
    C848     C        0.45487    0.44723    0.17528    1.000
    H397     H        0.42257    0.41343    0.17553    1.000
    C849     C        0.49127    0.45603    0.16161    1.000
    C850     C        0.43047    0.51793    0.21689    1.000
    C851     C        0.38977    0.51103    0.23147    1.000
    H398     H        0.35657    0.47813    0.23173    1.000
    C852     C        0.39797    0.54963    0.24449    1.000
    C853     C        0.97307    0.11383    0.29926    1.000
    H399     H        0.00727    0.13703    0.29383    1.000
    C854     C        0.95677    0.12593    0.31711    1.000
    H400     H        0.98077    0.15843    0.32343    1.000
    C855     C        0.81487    0.09783    0.38350    1.000
    C856     C        0.78017    0.04343    0.37643    1.000
    H401     H        0.79127    0.03173    0.36563    1.000
    C857     C        0.73427    0.01053    0.38443    1.000
    H402     H        0.71327    0.97503    0.37973    1.000
    C858     C        0.71527    0.02793    0.40033    1.000
    H403     H        0.68047    0.00423    0.40523    1.000
    C859     C        0.74517    0.07663    0.40873    1.000
    H404     H        0.73157    0.08483    0.41973    1.000
    C860     C        0.79717    0.11653    0.40143    1.000
    C861     C        0.72797    0.18653    0.46099    1.000
    H405     H        0.70557    0.15163    0.45593    1.000
    C862     C        0.70877    0.20663    0.47642    1.000
    H406     H        0.67367    0.18453    0.48133    1.000
    O141     O        0.78994    0.48711    0.56354    1.000
    O142     O        0.81700    0.45927    0.53702    1.000
    O143     O        0.67312    0.42812    0.50596    1.000
    O144     O        0.66367    0.42079    0.59733    1.000
    C863     C        0.82129    0.49500    0.54939    1.000
    C864     C        0.86899    0.55216    0.54682    1.000
    C865     C        0.90680    0.56317    0.53282    1.000
    H407     H        0.90303    0.53477    0.52487    1.000
    C866     C        0.95153    0.61617    0.52995    1.000
    H408     H        0.97693    0.62287    0.52027    1.000
    C867     C        0.95713    0.65797    0.54157    1.000
    C868     C        0.91613    0.64757    0.55495    1.000
    H409     H        0.91753    0.67647    0.56187    1.000
    C869     C        0.87313    0.59427    0.55803    1.000
    H410     H        0.84733    0.58737    0.56757    1.000
    C870     C        0.00133    0.71327    0.53983    1.000
    C871     C        0.04093    0.75777    0.53784    1.000
    C872     C        0.08993    0.81037    0.53658    1.000
    C873     C        0.12863    0.81947    0.52294    1.000
    C874     C        0.12153    0.78057    0.50862    1.000
    H411     H        0.08923    0.74677    0.50887    1.000
    C875     C        0.15793    0.78937    0.49495    1.000
    C876     C        0.09713    0.85127    0.55023    1.000
    C877     C        0.05643    0.84437    0.56481    1.000
    H412     H        0.02323    0.81147    0.56507    1.000
    C878     C        0.06463    0.88297    0.57783    1.000
    C879     C        0.63973    0.44717    0.63260    1.000
    H413     H        0.67393    0.47037    0.62717    1.000
    C880     C        0.62343    0.45927    0.65045    1.000
    H414     H        0.64743    0.49177    0.65677    1.000
    C881     C        0.48153    0.43117    0.71684    1.000
    C882     C        0.44683    0.37677    0.70977    1.000
    H415     H        0.45793    0.36507    0.69897    1.000
    C883     C        0.40093    0.34387    0.71777    1.000
    H416     H        0.37993    0.30837    0.71307    1.000
    C884     C        0.38193    0.36127    0.73367    1.000
    H417     H        0.34713    0.33757    0.73857    1.000
    C885     C        0.41183    0.40997    0.74207    1.000
    H418     H        0.39823    0.41817    0.75307    1.000
    C886     C        0.46383    0.44987    0.73477    1.000
    C887     C        0.39463    0.51987    0.79433    1.000
    H419     H        0.37223    0.48497    0.78927    1.000
    C888     C        0.37543    0.53997    0.80976    1.000
    H420     H        0.34033    0.51787    0.81467    1.000
    O145     O        0.17956    0.63617    0.89687    1.000
    O146     O        0.20740    0.69107    0.87035    1.000
    O147     O        0.23855    0.57834    0.83929    1.000
    O148     O        0.24588    0.57622    0.93066    1.000
    C889     C        0.17167    0.65963    0.88272    1.000
    C890     C        0.11451    0.65017    0.88015    1.000
    C891     C        0.10350    0.67697    0.86615    1.000
    H421     H        0.13190    0.70160    0.85820    1.000
    C892     C        0.05050    0.66870    0.86328    1.000
    H422     H        0.04380    0.68740    0.85360    1.000
    C893     C        0.00870    0.63250    0.87490    1.000
    C894     C        0.01910    0.60190    0.88828    1.000
    H423     H        0.99020    0.57440    0.89520    1.000
    C895     C        0.07240    0.61220    0.89136    1.000
    H424     H        0.07930    0.59330    0.90090    1.000
    C896     C        0.95340    0.62140    0.87316    1.000
    C897     C        0.90890    0.61650    0.87117    1.000
    C898     C        0.85630    0.61290    0.86991    1.000
    C899     C        0.84720    0.64250    0.85627    1.000
    C900     C        0.88610    0.67430    0.84195    1.000
    H425     H        0.91990    0.67580    0.84220    1.000
    C901     C        0.87730    0.70190    0.82828    1.000
    C902     C        0.81540    0.57920    0.88356    1.000
    C903     C        0.82230    0.54540    0.89814    1.000
    H426     H        0.85520    0.54510    0.89840    1.000
    C904     C        0.78370    0.51500    0.91116    1.000
    C905     C        0.21950    0.52590    0.96593    1.000
    H427     H        0.19630    0.53690    0.96050    1.000
    C906     C        0.20740    0.49750    0.98378    1.000
    H428     H        0.17490    0.48900    0.99010    1.000
    C907     C        0.23550    0.38370    0.05017    1.000
    C908     C        0.28990    0.40340    0.04310    1.000
    H429     H        0.30160    0.42620    0.03230    1.000
    C909     C        0.32280    0.39040    0.05110    1.000
    H430     H        0.35830    0.40490    0.04640    1.000
    C910     C        0.30540    0.35400    0.06700    1.000
    H431     H        0.32910    0.34290    0.07190    1.000
    C911     C        0.25670    0.33520    0.07540    1.000
    H432     H        0.24850    0.31340    0.08640    1.000
    C912     C        0.21680    0.34730    0.06810    1.000
    C913     C        0.14680    0.20810    0.12766    1.000
    H433     H        0.18170    0.22060    0.12260    1.000
    C914     C        0.12670    0.16880    0.14309    1.000
    H434     H        0.14880    0.15580    0.14800    1.000
    O149     O        0.84623    0.96950    0.23020    1.000
    O150     O        0.87407    0.02440    0.20368    1.000
    O151     O        0.90522    0.91167    0.17262    1.000
    O152     O        0.91255    0.90955    0.26399    1.000
    C915     C        0.83834    0.99296    0.21605    1.000
    C916     C        0.78118    0.98350    0.21348    1.000
    C917     C        0.77017    0.01030    0.19948    1.000
    H435     H        0.79857    0.03493    0.19153    1.000
    C918     C        0.71717    0.00203    0.19661    1.000
    H436     H        0.71047    0.02073    0.18693    1.000
    C919     C        0.67537    0.96583    0.20823    1.000
    C920     C        0.68577    0.93523    0.22161    1.000
    H437     H        0.65687    0.90773    0.22853    1.000
    C921     C        0.73907    0.94553    0.22469    1.000
    H438     H        0.74597    0.92663    0.23423    1.000
    C922     C        0.62007    0.95473    0.20649    1.000
    C923     C        0.57557    0.94983    0.20450    1.000
    C924     C        0.52297    0.94623    0.20324    1.000
    C925     C        0.51387    0.97583    0.18960    1.000
    C926     C        0.55277    0.00763    0.17528    1.000
    H439     H        0.58657    0.00913    0.17553    1.000
    C927     C        0.54397    0.03523    0.16161    1.000
    C928     C        0.48207    0.91253    0.21689    1.000
    C929     C        0.48897    0.87873    0.23147    1.000
    H440     H        0.52187    0.87843    0.23173    1.000
    C930     C        0.45037    0.84833    0.24449    1.000
    C931     C        0.88617    0.85923    0.29926    1.000
    H441     H        0.86297    0.87023    0.29383    1.000
    C932     C        0.87407    0.83083    0.31711    1.000
    H442     H        0.84157    0.82233    0.32343    1.000
    C933     C        0.90217    0.71703    0.38350    1.000
    C934     C        0.95657    0.73673    0.37643    1.000
    H443     H        0.96827    0.75953    0.36563    1.000
    C935     C        0.98947    0.72373    0.38443    1.000
    H444     H        0.02497    0.73823    0.37973    1.000
    C936     C        0.97207    0.68733    0.40033    1.000
    H445     H        0.99577    0.67623    0.40523    1.000
    C937     C        0.92337    0.66853    0.40873    1.000
    H446     H        0.91517    0.64673    0.41973    1.000
    C938     C        0.88347    0.68063    0.40143    1.000
    C939     C        0.81347    0.54143    0.46099    1.000
    H447     H        0.84837    0.55393    0.45593    1.000
    C940     C        0.79337    0.50213    0.47642    1.000
    H448     H        0.81547    0.48913    0.48133    1.000
    O153     O        0.51289    0.30284    0.56354    1.000
    O154     O        0.54073    0.35774    0.53702    1.000
    O155     O        0.57188    0.24501    0.50596    1.000
    O156     O        0.57921    0.24289    0.59733    1.000
    C941     C        0.50500    0.32630    0.54939    1.000
    C942     C        0.44784    0.31684    0.54682    1.000
    C943     C        0.43683    0.34364    0.53282    1.000
    H449     H        0.46523    0.36827    0.52487    1.000
    C944     C        0.38383    0.33537    0.52995    1.000
    H450     H        0.37713    0.35407    0.52027    1.000
    C945     C        0.34203    0.29917    0.54157    1.000
    C946     C        0.35243    0.26857    0.55495    1.000
    H451     H        0.32353    0.24107    0.56187    1.000
    C947     C        0.40573    0.27887    0.55803    1.000
    H452     H        0.41263    0.25997    0.56757    1.000
    C948     C        0.28673    0.28807    0.53983    1.000
    C949     C        0.24223    0.28317    0.53784    1.000
    C950     C        0.18963    0.27957    0.53658    1.000
    C951     C        0.18053    0.30917    0.52294    1.000
    C952     C        0.21943    0.34097    0.50862    1.000
    H453     H        0.25323    0.34247    0.50887    1.000
    C953     C        0.21063    0.36857    0.49495    1.000
    C954     C        0.14873    0.24587    0.55023    1.000
    C955     C        0.15563    0.21207    0.56481    1.000
    H454     H        0.18853    0.21177    0.56507    1.000
    C956     C        0.11703    0.18167    0.57783    1.000
    C957     C        0.55283    0.19257    0.63260    1.000
    H455     H        0.52963    0.20357    0.62717    1.000
    C958     C        0.54073    0.16417    0.65045    1.000
    H456     H        0.50823    0.15567    0.65677    1.000
    C959     C        0.56883    0.05037    0.71684    1.000
    C960     C        0.62323    0.07007    0.70977    1.000
    H457     H        0.63493    0.09287    0.69897    1.000
    C961     C        0.65613    0.05707    0.71777    1.000
    H458     H        0.69163    0.07157    0.71307    1.000
    C962     C        0.63873    0.02067    0.73367    1.000
    H459     H        0.66243    0.00957    0.73857    1.000
    C963     C        0.59003    0.00187    0.74207    1.000
    H460     H        0.58183    0.98007    0.75307    1.000
    C964     C        0.55013    0.01397    0.73477    1.000
    C965     C        0.48013    0.87477    0.79433    1.000
    H461     H        0.51503    0.88727    0.78927    1.000
    C966     C        0.46003    0.83547    0.80976    1.000
    H462     H        0.48213    0.82247    0.81467    1.000
    O157     O        0.36383    0.54339    0.89687    1.000
    O158     O        0.30893    0.51633    0.87035    1.000
    O159     O        0.42166    0.66021    0.83929    1.000
    O160     O        0.42378    0.66966    0.93066    1.000
    C967     C        0.34037    0.51204    0.88272    1.000
    C968     C        0.34983    0.46434    0.88015    1.000
    C969     C        0.32303    0.42653    0.86615    1.000
    H463     H        0.29840    0.43030    0.85820    1.000
    C970     C        0.33130    0.38180    0.86328    1.000
    H464     H        0.31260    0.35640    0.85360    1.000
    C971     C        0.36750    0.37620    0.87490    1.000
    C972     C        0.39810    0.41720    0.88828    1.000
    H465     H        0.42560    0.41580    0.89520    1.000
    C973     C        0.38780    0.46020    0.89136    1.000
    H466     H        0.40670    0.48600    0.90090    1.000
    C974     C        0.37860    0.33200    0.87316    1.000
    C975     C        0.38350    0.29240    0.87117    1.000
    C976     C        0.38710    0.24340    0.86991    1.000
    C977     C        0.35750    0.20470    0.85627    1.000
    C978     C        0.32570    0.21180    0.84195    1.000
    H467     H        0.32420    0.24410    0.84220    1.000
    C979     C        0.29810    0.17540    0.82828    1.000
    C980     C        0.42080    0.23620    0.88356    1.000
    C981     C        0.45460    0.27690    0.89814    1.000
    H468     H        0.45490    0.31010    0.89840    1.000
    C982     C        0.48500    0.26870    0.91116    1.000
    C983     C        0.47410    0.69360    0.96593    1.000
    H469     H        0.46310    0.65940    0.96050    1.000
    C984     C        0.50250    0.70990    0.98378    1.000
    H470     H        0.51100    0.68590    0.99010    1.000
    C985     C        0.61630    0.85180    0.05017    1.000
    C986     C        0.59660    0.88650    0.04310    1.000
    H471     H        0.57380    0.87540    0.03230    1.000
    C987     C        0.60960    0.93240    0.05110    1.000
    H472     H        0.59510    0.95340    0.04640    1.000
    C988     C        0.64600    0.95140    0.06700    1.000
    H473     H        0.65710    0.98620    0.07190    1.000
    C989     C        0.66480    0.92150    0.07540    1.000
    H474     H        0.68660    0.93510    0.08640    1.000
    C990     C        0.65270    0.86950    0.06810    1.000
    C991     C        0.79190    0.93870    0.12766    1.000
    H475     H        0.77940    0.96110    0.12260    1.000
    C992     C        0.83120    0.95790    0.14309    1.000
    H476     H        0.84420    0.99300    0.14800    1.000
    O161     O        0.03050    0.87672    0.23020    1.000
    O162     O        0.97560    0.84966    0.20368    1.000
    O163     O        0.08833    0.99354    0.17262    1.000
    O164     O        0.09045    0.00299    0.26399    1.000
    C993     C        0.00704    0.84537    0.21605    1.000
    C994     C        0.01650    0.79767    0.21348    1.000
    C995     C        0.98970    0.75986    0.19948    1.000
    H477     H        0.96507    0.76363    0.19153    1.000
    C996     C        0.99797    0.71513    0.19661    1.000
    H478     H        0.97927    0.68973    0.18693    1.000
    C997     C        0.03417    0.70953    0.20823    1.000
    C998     C        0.06477    0.75053    0.22161    1.000
    H479     H        0.09227    0.74913    0.22853    1.000
    C999     C        0.05447    0.79353    0.22469    1.000
    H480     H        0.07337    0.81933    0.23423    1.000
    C1000    C        0.04527    0.66533    0.20649    1.000
    C1001    C        0.05017    0.62573    0.20450    1.000
    C1002    C        0.05377    0.57673    0.20324    1.000
    C1003    C        0.02417    0.53803    0.18960    1.000
    C1004    C        0.99237    0.54513    0.17528    1.000
    H481     H        0.99087    0.57743    0.17553    1.000
    C1005    C        0.96477    0.50873    0.16161    1.000
    C1006    C        0.08747    0.56953    0.21689    1.000
    C1007    C        0.12127    0.61023    0.23147    1.000
    H482     H        0.12157    0.64343    0.23173    1.000
    C1008    C        0.15167    0.60203    0.24449    1.000
    C1009    C        0.14077    0.02693    0.29926    1.000
    H483     H        0.12977    0.99273    0.29383    1.000
    C1010    C        0.16917    0.04323    0.31711    1.000
    H484     H        0.17767    0.01923    0.32343    1.000
    C1011    C        0.28297    0.18513    0.38350    1.000
    C1012    C        0.26327    0.21983    0.37643    1.000
    H485     H        0.24047    0.20873    0.36563    1.000
    C1013    C        0.27627    0.26573    0.38443    1.000
    H486     H        0.26177    0.28673    0.37973    1.000
    C1014    C        0.31267    0.28473    0.40033    1.000
    H487     H        0.32377    0.31953    0.40523    1.000
    C1015    C        0.33147    0.25483    0.40873    1.000
    H488     H        0.35327    0.26843    0.41973    1.000
    C1016    C        0.31937    0.20283    0.40143    1.000
    C1017    C        0.45857    0.27203    0.46099    1.000
    H489     H        0.44607    0.29443    0.45593    1.000
    C1018    C        0.49787    0.29123    0.47642    1.000
    H490     H        0.51087    0.32633    0.48133    1.000
    O165     O        0.69716    0.21006    0.56354    1.000
    O166     O        0.64226    0.18300    0.53702    1.000
    O167     O        0.75499    0.32688    0.50596    1.000
    O168     O        0.75711    0.33633    0.59733    1.000
    C1019    C        0.67370    0.17871    0.54939    1.000
    C1020    C        0.68316    0.13101    0.54682    1.000
    C1021    C        0.65636    0.09320    0.53282    1.000
    H491     H        0.63173    0.09697    0.52487    1.000
    C1022    C        0.66463    0.04847    0.52995    1.000
    H492     H        0.64593    0.02307    0.52027    1.000
    C1023    C        0.70083    0.04287    0.54157    1.000
    C1024    C        0.73143    0.08387    0.55495    1.000
    H493     H        0.75893    0.08247    0.56187    1.000
    C1025    C        0.72113    0.12687    0.55803    1.000
    H494     H        0.74003    0.15267    0.56757    1.000
    C1026    C        0.71193    0.99867    0.53983    1.000
    C1027    C        0.71683    0.95907    0.53784    1.000
    C1028    C        0.72043    0.91007    0.53658    1.000
    C1029    C        0.69083    0.87137    0.52294    1.000
    C1030    C        0.65903    0.87847    0.50862    1.000
    H495     H        0.65753    0.91077    0.50887    1.000
    C1031    C        0.63143    0.84207    0.49495    1.000
    C1032    C        0.75413    0.90287    0.55023    1.000
    C1033    C        0.78793    0.94357    0.56481    1.000
    H496     H        0.78823    0.97677    0.56507    1.000
    C1034    C        0.81833    0.93537    0.57783    1.000
    C1035    C        0.80743    0.36027    0.63260    1.000
    H497     H        0.79643    0.32607    0.62717    1.000
    C1036    C        0.83583    0.37657    0.65045    1.000
    H498     H        0.84433    0.35257    0.65677    1.000
    C1037    C        0.94963    0.51847    0.71684    1.000
    C1038    C        0.92993    0.55317    0.70977    1.000
    H499     H        0.90713    0.54207    0.69897    1.000
    C1039    C        0.94293    0.59907    0.71777    1.000
    H500     H        0.92843    0.62007    0.71307    1.000
    C1040    C        0.97933    0.61807    0.73367    1.000
    H501     H        0.99043    0.65287    0.73857    1.000
    C1041    C        0.99813    0.58817    0.74207    1.000
    H502     H        0.01993    0.60177    0.75307    1.000
    C1042    C        0.98603    0.53617    0.73477    1.000
    C1043    C        0.12523    0.60537    0.79433    1.000
    H503     H        0.11273    0.62777    0.78927    1.000
    C1044    C        0.16453    0.62457    0.80976    1.000
    H504     H        0.17753    0.65967    0.81467    1.000
    Zr19     Zr       0.29184    0.70816    0.86385    1.000
    O169     O        0.28642    0.71358    0.89634    1.000
    C1045    C        0.28258    0.71742    0.93810    1.000
    C1046    C        0.26825    0.73175    0.95704    1.000
    C1047    C        0.24120    0.75880    0.99180    1.000
    C1048    C        0.22680    0.77320    0.01090    1.000
    C1049    C        0.21500    0.78500    0.02480    1.000
    C1050    C        0.19880    0.80120    0.04284    1.000
    C1051    C        0.16620    0.83380    0.07514    1.000
    C1052    C        0.14750    0.85250    0.09229    1.000
    C1053    C        0.13360    0.86640    0.10480    1.000
    C1054    C        0.11360    0.88640    0.12035    1.000
    Zr20     Zr       0.95851    0.04149    0.19718    1.000
    O170     O        0.95309    0.04691    0.22967    1.000
    C1055    C        0.94925    0.05075    0.27143    1.000
    C1056    C        0.93492    0.06508    0.29037    1.000
    C1057    C        0.90787    0.09213    0.32513    1.000
    C1058    C        0.89347    0.10653    0.34423    1.000
    C1059    C        0.88167    0.11833    0.35813    1.000
    C1060    C        0.86547    0.13453    0.37617    1.000
    C1061    C        0.83287    0.16713    0.40847    1.000
    C1062    C        0.81417    0.18583    0.42562    1.000
    C1063    C        0.80027    0.19973    0.43813    1.000
    C1064    C        0.78027    0.21973    0.45368    1.000
    Zr21     Zr       0.62517    0.37483    0.53051    1.000
    O171     O        0.61975    0.38025    0.56301    1.000
    C1065    C        0.61591    0.38409    0.60477    1.000
    C1066    C        0.60158    0.39842    0.62371    1.000
    C1067    C        0.57453    0.42547    0.65847    1.000
    C1068    C        0.56013    0.43987    0.67757    1.000
    C1069    C        0.54833    0.45167    0.69147    1.000
    C1070    C        0.53213    0.46787    0.70951    1.000
    C1071    C        0.49953    0.50047    0.74181    1.000
    C1072    C        0.48083    0.51917    0.75896    1.000
    C1073    C        0.46693    0.53307    0.77147    1.000
    C1074    C        0.44693    0.55307    0.78702    1.000
    Zr22     Zr       0.41632    0.70816    0.86385    1.000
    O172     O        0.42716    0.71358    0.89634    1.000
    C1075    C        0.43484    0.71742    0.93810    1.000
    C1076    C        0.46350    0.73175    0.95704    1.000
    C1077    C        0.51760    0.75880    0.99180    1.000
    C1078    C        0.54640    0.77320    0.01090    1.000
    C1079    C        0.57000    0.78500    0.02480    1.000
    C1080    C        0.60240    0.80120    0.04284    1.000
    C1081    C        0.66760    0.83380    0.07514    1.000
    C1082    C        0.70500    0.85250    0.09229    1.000
    C1083    C        0.73280    0.86640    0.10480    1.000
    C1084    C        0.77280    0.88640    0.12035    1.000
    Zr23     Zr       0.08299    0.04149    0.19718    1.000
    O173     O        0.09383    0.04691    0.22967    1.000
    C1085    C        0.10151    0.05075    0.27143    1.000
    C1086    C        0.13017    0.06508    0.29037    1.000
    C1087    C        0.18427    0.09213    0.32513    1.000
    C1088    C        0.21307    0.10653    0.34423    1.000
    C1089    C        0.23667    0.11833    0.35813    1.000
    C1090    C        0.26907    0.13453    0.37617    1.000
    C1091    C        0.33427    0.16713    0.40847    1.000
    C1092    C        0.37167    0.18583    0.42562    1.000
    C1093    C        0.39947    0.19973    0.43813    1.000
    C1094    C        0.43947    0.21973    0.45368    1.000
    Zr24     Zr       0.74965    0.37483    0.53051    1.000
    O174     O        0.76049    0.38025    0.56301    1.000
    C1095    C        0.76817    0.38409    0.60477    1.000
    C1096    C        0.79683    0.39842    0.62371    1.000
    C1097    C        0.85093    0.42547    0.65847    1.000
    C1098    C        0.87973    0.43987    0.67757    1.000
    C1099    C        0.90333    0.45167    0.69147    1.000
    C1100    C        0.93573    0.46787    0.70951    1.000
    C1101    C        0.00093    0.50047    0.74181    1.000
    C1102    C        0.03833    0.51917    0.75896    1.000
    C1103    C        0.06613    0.53307    0.77147    1.000
    C1104    C        0.10613    0.55307    0.78702    1.000
    Zr25     Zr       0.29184    0.58368    0.86385    1.000
    O175     O        0.28642    0.57284    0.89634    1.000
    C1105    C        0.28258    0.56516    0.93810    1.000
    C1106    C        0.26825    0.53650    0.95704    1.000
    C1107    C        0.24120    0.48240    0.99180    1.000
    C1108    C        0.22680    0.45360    0.01090    1.000
    C1109    C        0.21500    0.43000    0.02480    1.000
    C1110    C        0.19880    0.39760    0.04284    1.000
    C1111    C        0.16620    0.33240    0.07514    1.000
    C1112    C        0.14750    0.29500    0.09229    1.000
    C1113    C        0.13360    0.26720    0.10480    1.000
    C1114    C        0.11360    0.22720    0.12035    1.000
    Zr26     Zr       0.95851    0.91701    0.19718    1.000
    O176     O        0.95309    0.90617    0.22967    1.000
    C1115    C        0.94925    0.89849    0.27143    1.000
    C1116    C        0.93492    0.86983    0.29037    1.000
    C1117    C        0.90787    0.81573    0.32513    1.000
    C1118    C        0.89347    0.78693    0.34423    1.000
    C1119    C        0.88167    0.76333    0.35813    1.000
    C1120    C        0.86547    0.73093    0.37617    1.000
    C1121    C        0.83287    0.66573    0.40847    1.000
    C1122    C        0.81417    0.62833    0.42562    1.000
    C1123    C        0.80027    0.60053    0.43813    1.000
    C1124    C        0.78027    0.56053    0.45368    1.000
    Zr27     Zr       0.62517    0.25035    0.53051    1.000
    O177     O        0.61975    0.23951    0.56301    1.000
    C1125    C        0.61591    0.23183    0.60477    1.000
    C1126    C        0.60158    0.20317    0.62371    1.000
    C1127    C        0.57453    0.14907    0.65847    1.000
    C1128    C        0.56013    0.12027    0.67757    1.000
    C1129    C        0.54833    0.09667    0.69147    1.000
    C1130    C        0.53213    0.06427    0.70951    1.000
    C1131    C        0.49953    0.99907    0.74181    1.000
    C1132    C        0.48083    0.96167    0.75896    1.000
    C1133    C        0.46693    0.93387    0.77147    1.000
    C1134    C        0.44693    0.89387    0.78702    1.000
    Zr28     Zr       0.25028    0.62514    0.90495    1.000
    O178     O        0.26328    0.63164    0.87577    1.000
    C1135    C        0.22270    0.61135    0.83339    1.000
    C1136    C        0.18330    0.59165    0.81726    1.000
    Zr29     Zr       0.91695    0.95847    0.23828    1.000
    O179     O        0.92995    0.96497    0.20910    1.000
    C1137    C        0.88937    0.94468    0.16672    1.000
    C1138    C        0.84997    0.92498    0.15059    1.000
    Zr30     Zr       0.58361    0.29181    0.57162    1.000
    O180     O        0.59661    0.29831    0.54244    1.000
    C1139    C        0.55603    0.27802    0.50006    1.000
    C1140    C        0.51663    0.25832    0.48393    1.000
    Zr31     Zr       0.37486    0.74972    0.90495    1.000
    O181     O        0.36836    0.73672    0.87577    1.000
    C1141    C        0.38865    0.77730    0.83339    1.000
    C1142    C        0.40835    0.81670    0.81726    1.000
    Zr32     Zr       0.04153    0.08305    0.23828    1.000
    O182     O        0.03503    0.07005    0.20910    1.000
    C1143    C        0.05532    0.11063    0.16672    1.000
    C1144    C        0.07502    0.15003    0.15059    1.000
    Zr33     Zr       0.70819    0.41639    0.57162    1.000
    O183     O        0.70169    0.40339    0.54244    1.000
    C1145    C        0.72198    0.44397    0.50006    1.000
    C1146    C        0.74168    0.48337    0.48393    1.000
    Zr34     Zr       0.37486    0.62514    0.90495    1.000
    O184     O        0.36836    0.63164    0.87577    1.000
    C1147    C        0.38865    0.61135    0.83339    1.000
    C1148    C        0.40835    0.59165    0.81726    1.000
    Zr35     Zr       0.04153    0.95847    0.23828    1.000
    O185     O        0.03503    0.96497    0.20910    1.000
    C1149    C        0.05532    0.94468    0.16672    1.000
    C1150    C        0.07502    0.92498    0.15059    1.000
    Zr36     Zr       0.70819    0.29181    0.57162    1.000
    O186     O        0.70169    0.29831    0.54244    1.000
    C1151    C        0.72198    0.27802    0.50006    1.000
    C1152    C        0.74168    0.25832    0.48393    1.000
    O187     O        0.33333    0.66667    0.91076    1.000
    O188     O        0.33333    0.66667    0.84953    1.000
    O189     O        0.00000    0.00000    0.24409    1.000
    O190     O        0.00000    0.00000    0.18286    1.000
    O191     O        0.66667    0.33333    0.57743    1.000
    O192     O        0.66667    0.33333    0.51620    1.000
