# CIF file generated by openbabel 3.1.0, see https://openbabel.org
data_I
_chemical_name_common 'MULXOH_clean'
_cell_length_a 10.5826
_cell_length_b 12.0075
_cell_length_c 18.147
_cell_angle_alpha 90
_cell_angle_beta 90
_cell_angle_gamma 110.074
_space_group_name_H-M_alt 'P 1'
_space_group_name_Hall 'P 1'
loop_
    _symmetry_equiv_pos_as_xyz
    x,y,z
loop_
    _atom_site_label
    _atom_site_type_symbol
    _atom_site_fract_x
    _atom_site_fract_y
    _atom_site_fract_z
    _atom_site_occupancy
    La1      La       0.53527    0.64498    0.93143    1.000
    La2      La       0.96473    0.85502    0.43143    1.000
    La3      La       0.46473    0.35502    0.06857    1.000
    La4      La       0.03527    0.14498    0.56857    1.000
    H1       H        0.68900    0.29300    0.86000    1.000
    H2       H        0.77130    0.47770    0.80390    1.000
    H3       H        0.66000    0.43510    0.74280    1.000
    H4       H        0.85840    0.41790    0.69620    1.000
    H5       H        0.86990    0.34140    0.76430    1.000
    H6       H        0.66700    0.27000    0.65600    1.000
    H7       H        0.68570    0.12420    0.77300    1.000
    H8       H        0.57510    0.08990    0.71140    1.000
    H9       H        0.48100    0.22490    0.75590    1.000
    H10      H        0.49400    0.14680    0.82280    1.000
    H11      H        0.13400    0.48700    0.93500    1.000
    H12      H        0.21520    0.63880    0.01950    1.000
    H13      H        0.12020    0.56200    0.08080    1.000
    H14      H        0.96900    0.34900    0.04660    1.000
    H15      H        0.97750    0.30540    0.96580    1.000
    H16      H        0.81100    0.20700    0.36000    1.000
    H17      H        0.72870    0.02230    0.30390    1.000
    H18      H        0.84000    0.06490    0.24280    1.000
    H19      H        0.64160    0.08210    0.19620    1.000
    H20      H        0.63010    0.15860    0.26430    1.000
    H21      H        0.83300    0.23000    0.15600    1.000
    H22      H        0.81430    0.37580    0.27300    1.000
    H23      H        0.92490    0.41010    0.21140    1.000
    H24      H        0.01900    0.27510    0.25590    1.000
    H25      H        0.00600    0.35320    0.32280    1.000
    H26      H        0.36600    0.01300    0.43500    1.000
    H27      H        0.28480    0.86120    0.51950    1.000
    H28      H        0.37980    0.93800    0.58080    1.000
    H29      H        0.53100    0.15100    0.54660    1.000
    H30      H        0.52250    0.19460    0.46580    1.000
    H31      H        0.31100    0.70700    0.14000    1.000
    H32      H        0.22870    0.52230    0.19610    1.000
    H33      H        0.34000    0.56490    0.25720    1.000
    H34      H        0.14160    0.58210    0.30380    1.000
    H35      H        0.13010    0.65860    0.23570    1.000
    H36      H        0.33300    0.73000    0.34400    1.000
    H37      H        0.31430    0.87580    0.22700    1.000
    H38      H        0.42490    0.91010    0.28860    1.000
    H39      H        0.51900    0.77510    0.24410    1.000
    H40      H        0.50600    0.85320    0.17720    1.000
    H41      H        0.86600    0.51300    0.06500    1.000
    H42      H        0.78480    0.36120    0.98050    1.000
    H43      H        0.87980    0.43800    0.91920    1.000
    H44      H        0.03100    0.65100    0.95340    1.000
    H45      H        0.02250    0.69460    0.03420    1.000
    H46      H        0.18900    0.79300    0.64000    1.000
    H47      H        0.27130    0.97770    0.69610    1.000
    H48      H        0.16000    0.93510    0.75720    1.000
    H49      H        0.35840    0.91790    0.80380    1.000
    H50      H        0.36990    0.84140    0.73570    1.000
    H51      H        0.16700    0.77000    0.84400    1.000
    H52      H        0.18570    0.62420    0.72700    1.000
    H53      H        0.07510    0.58990    0.78860    1.000
    H54      H        0.98100    0.72490    0.74410    1.000
    H55      H        0.99400    0.64680    0.67720    1.000
    H56      H        0.63400    0.98700    0.56500    1.000
    H57      H        0.71520    0.13880    0.48050    1.000
    H58      H        0.62020    0.06200    0.41920    1.000
    H59      H        0.46900    0.84900    0.45340    1.000
    H60      H        0.47750    0.80540    0.53420    1.000
    C1       C        0.54430    0.36460    0.88060    1.000
    C2       C        0.62760    0.31680    0.82870    1.000
    C3       C        0.71620    0.40930    0.77610    1.000
    C4       C        0.80700    0.35900    0.73150    1.000
    C5       C        0.72490    0.24690    0.69070    1.000
    C6       C        0.63250    0.15510    0.74080    1.000
    C7       C        0.54470    0.20620    0.78760    1.000
    C8       C        0.12010    0.46670    0.98700    1.000
    C9       C        0.12810    0.57850    0.02830    1.000
    C10      C        0.98280    0.37400    0.99550    1.000
    C11      C        0.81890    0.20300    0.64430    1.000
    C12      C        0.23330    0.42440    0.01180    1.000
    C13      C        0.95570    0.13540    0.38060    1.000
    C14      C        0.87240    0.18320    0.32870    1.000
    C15      C        0.78380    0.09070    0.27610    1.000
    C16      C        0.69300    0.14100    0.23150    1.000
    C17      C        0.77510    0.25310    0.19070    1.000
    C18      C        0.86750    0.34490    0.24080    1.000
    C19      C        0.95530    0.29380    0.28760    1.000
    C20      C        0.37990    0.03330    0.48700    1.000
    C21      C        0.37190    0.92150    0.52830    1.000
    C22      C        0.51720    0.12600    0.49550    1.000
    C23      C        0.68110    0.29700    0.14430    1.000
    C24      C        0.26670    0.07560    0.51180    1.000
    C25      C        0.45570    0.63540    0.11940    1.000
    C26      C        0.37240    0.68320    0.17130    1.000
    C27      C        0.28380    0.59070    0.22390    1.000
    C28      C        0.19300    0.64100    0.26850    1.000
    C29      C        0.27510    0.75310    0.30930    1.000
    C30      C        0.36750    0.84490    0.25920    1.000
    C31      C        0.45530    0.79380    0.21240    1.000
    C32      C        0.87990    0.53330    0.01300    1.000
    C33      C        0.87190    0.42150    0.97170    1.000
    C34      C        0.01720    0.62600    0.00450    1.000
    C35      C        0.18110    0.79700    0.35570    1.000
    C36      C        0.76670    0.57560    0.98820    1.000
    C37      C        0.04430    0.86460    0.61940    1.000
    C38      C        0.12760    0.81680    0.67130    1.000
    C39      C        0.21620    0.90930    0.72390    1.000
    C40      C        0.30700    0.85900    0.76850    1.000
    C41      C        0.22490    0.74690    0.80930    1.000
    C42      C        0.13250    0.65510    0.75920    1.000
    C43      C        0.04470    0.70620    0.71240    1.000
    C44      C        0.62010    0.96670    0.51300    1.000
    C45      C        0.62810    0.07850    0.47170    1.000
    C46      C        0.48280    0.87400    0.50450    1.000
    C47      C        0.31890    0.70300    0.85570    1.000
    C48      C        0.73330    0.92440    0.48820    1.000
    O1       O        0.53380    0.46270    0.86470    1.000
    O2       O        0.34940    0.47920    0.98720    1.000
    O3       O        0.83660    0.10870    0.66150    1.000
    O4       O        0.87600    0.26340    0.59040    1.000
    O5       O        0.49510    0.30340    0.93610    1.000
    O6       O        0.21120    0.33890    0.05470    1.000
    O7       O        0.96620    0.03730    0.36470    1.000
    O8       O        0.15060    0.02080    0.48720    1.000
    O9       O        0.66340    0.39130    0.16150    1.000
    O10      O        0.62400    0.23660    0.09040    1.000
    O11      O        0.00490    0.19660    0.43610    1.000
    O12      O        0.28880    0.16110    0.55470    1.000
    O13      O        0.46620    0.53730    0.13530    1.000
    O14      O        0.65060    0.52080    0.01280    1.000
    O15      O        0.16340    0.89130    0.33850    1.000
    O16      O        0.12400    0.73660    0.40960    1.000
    O17      O        0.50490    0.69660    0.06390    1.000
    O18      O        0.78880    0.66110    0.94530    1.000
    O19      O        0.03380    0.96270    0.63530    1.000
    O20      O        0.84940    0.97920    0.51280    1.000
    O21      O        0.33660    0.60870    0.83850    1.000
    O22      O        0.37600    0.76340    0.90960    1.000
    O23      O        0.99510    0.80340    0.56390    1.000
    O24      O        0.71120    0.83890    0.44530    1.000
