# CIF file generated by openbabel 3.1.0, see https://openbabel.org
data_I
_chemical_name_common 'image0'
_cell_length_a 30.892
_cell_length_b 14.751
_cell_length_c 19.08
_cell_angle_alpha 90
_cell_angle_beta 111.552
_cell_angle_gamma 90
_space_group_name_H-M_alt 'P 1'
_space_group_name_Hall 'P 1'
loop_
    _symmetry_equiv_pos_as_xyz
    x,y,z
loop_
    _atom_site_label
    _atom_site_type_symbol
    _atom_site_fract_x
    _atom_site_fract_y
    _atom_site_fract_z
    _atom_site_occupancy
    C1       C        0.43560    0.45570    0.27510    1.000
    C2       C        0.40040    0.47490    0.30980    1.000
    C3       C        0.35350    0.47850    0.26530    1.000
    H1       H        0.34340    0.46710    0.21390    1.000
    C4       C        0.32190    0.49940    0.29910    1.000
    C5       C        0.33700    0.51940    0.37620    1.000
    H2       H        0.31540    0.53470    0.39770    1.000
    C6       C        0.38350    0.51640    0.42030    1.000
    C7       C        0.39940    0.54190    0.50190    1.000
    C8       C        0.41520    0.49300    0.38590    1.000
    H3       H        0.44680    0.48960    0.41510    1.000
    C9       C        0.25730    0.48670    0.18210    1.000
    H4       H        0.26770    0.42750    0.17260    1.000
    H5       H        0.26900    0.53200    0.15670    1.000
    C10      C        0.20540    0.48970    0.15340    1.000
    C11      C        0.18200    0.50370    0.07710    1.000
    H6       H        0.19870    0.51300    0.04590    1.000
    C12      C        0.13390    0.50390    0.04690    1.000
    H7       H        0.11880    0.51340    0.99550    1.000
    C13      C        0.10890    0.49130    0.08850    1.000
    H8       H        0.07660    0.49220    0.06700    1.000
    C14      C        0.13140    0.47660    0.16530    1.000
    C15      C        0.18010    0.47910    0.19680    1.000
    H9       H        0.19510    0.47340    0.24870    1.000
    C16      C        0.10290    0.45250    0.22020    1.000
    H10      H        0.07470    0.41920    0.19290    1.000
    H11      H        0.12200    0.41640    0.26300    1.000
    C17      C        0.07060    0.53200    0.29010    1.000
    C18      C        0.05630    0.45690    0.32000    1.000
    H12      H        0.06150    0.39870    0.30610    1.000
    C19      C        0.03370    0.46990    0.37180    1.000
    C20      C        0.02080    0.39030    0.40710    1.000
    C21      C        0.02530    0.55640    0.39100    1.000
    H13      H        0.01050    0.56490    0.42500    1.000
    C22      C        0.03920    0.63150    0.35930    1.000
    C23      C        0.03130    0.72620    0.37780    1.000
    C24      C        0.06170    0.61760    0.30810    1.000
    H14      H        0.07070    0.66710    0.28650    1.000
    C25      C        0.07740    0.77510    0.65590    1.000
    H15      H        0.05240    0.78870    0.67030    1.000
    C26      C        0.12130    0.78140    0.70820    1.000
    H16      H        0.12530    0.80130    0.75640    1.000
    C27      C        0.15790    0.76070    0.69330    1.000
    C28      C        0.15170    0.73870    0.61780    1.000
    H17      H        0.17680    0.72730    0.60340    1.000
    C29      C        0.10510    0.73490    0.56530    1.000
    H18      H        0.10030    0.72120    0.51540    1.000
    C30      C        0.20260    0.76020    0.75900    1.000
    C31      C        0.27460    0.75410    0.83010    1.000
    C32      C        0.32830    0.75540    0.86530    1.000
    C33      C        0.35650    0.78210    0.83180    1.000
    H19      H        0.34490    0.80040    0.78170    1.000
    C34      C        0.40480    0.78220    0.87420    1.000
    H20      H        0.42480    0.80070    0.85060    1.000
    C35      C        0.39240    0.73600    0.97220    1.000
    H21      H        0.40300    0.72170    0.02320    1.000
    C36      C        0.34550    0.73160    0.93380    1.000
    H22      H        0.32620    0.71120    0.95800    1.000
    N1       N        0.06860    0.74950    0.58290    1.000
    N2       N        0.20430    0.74780    0.82540    1.000
    N3       N        0.24790    0.74170    0.86420    1.000
    N4       N        0.24660    0.76130    0.76000    1.000
    N5       N        0.25920    0.78550    0.69410    1.000
    H23      H        0.28770    0.79640    0.70030    1.000
    H24      H        0.23790    0.78850    0.64980    1.000
    N6       N        0.42290    0.75770    0.94520    1.000
    O1       O        0.42192    0.44990    0.20510    1.000
    O2       O        0.47604    0.44700    0.31730    1.000
    O3       O        0.44343    0.54210    0.53830    1.000
    O4       O        0.37160    0.56510    0.52940    1.000
    O5       O        0.27416    0.50440    0.26100    1.000
    O6       O        0.09310    0.53130    0.24260    1.000
    O7       O        0.02440    0.31170    0.38460    1.000
    O8       O        0.00732    0.40050    0.46110    1.000
    O9       O        0.00910    0.74270    0.41910    1.000
    O10      O        0.04800    0.78800    0.34840    1.000
    Zn1      Zn       0.45816    0.41975    0.14393    1.000
    Zn2      Zn       0.99548    0.73549    0.51363    1.000
    C37      C        0.93560    0.95570    0.27510    1.000
    C38      C        0.90040    0.97490    0.30980    1.000
    C39      C        0.85350    0.97850    0.26530    1.000
    H25      H        0.84340    0.96710    0.21390    1.000
    C40      C        0.82190    0.99940    0.29910    1.000
    C41      C        0.83700    0.01940    0.37620    1.000
    H26      H        0.81540    0.03470    0.39770    1.000
    C42      C        0.88350    0.01640    0.42030    1.000
    C43      C        0.89940    0.04190    0.50190    1.000
    C44      C        0.91520    0.99300    0.38590    1.000
    H27      H        0.94680    0.98960    0.41510    1.000
    C45      C        0.75730    0.98670    0.18210    1.000
    H28      H        0.76770    0.92750    0.17260    1.000
    H29      H        0.76900    0.03200    0.15670    1.000
    C46      C        0.70540    0.98970    0.15340    1.000
    C47      C        0.68200    0.00370    0.07710    1.000
    H30      H        0.69870    0.01300    0.04590    1.000
    C48      C        0.63390    0.00390    0.04690    1.000
    H31      H        0.61880    0.01340    0.99550    1.000
    C49      C        0.60890    0.99130    0.08850    1.000
    H32      H        0.57660    0.99220    0.06700    1.000
    C50      C        0.63140    0.97660    0.16530    1.000
    C51      C        0.68010    0.97910    0.19680    1.000
    H33      H        0.69510    0.97340    0.24870    1.000
    C52      C        0.60290    0.95250    0.22020    1.000
    H34      H        0.57470    0.91920    0.19290    1.000
    H35      H        0.62200    0.91640    0.26300    1.000
    C53      C        0.57060    0.03200    0.29010    1.000
    C54      C        0.55630    0.95690    0.32000    1.000
    H36      H        0.56150    0.89870    0.30610    1.000
    C55      C        0.53370    0.96990    0.37180    1.000
    C56      C        0.52080    0.89030    0.40710    1.000
    C57      C        0.52530    0.05640    0.39100    1.000
    H37      H        0.51050    0.06490    0.42500    1.000
    C58      C        0.53920    0.13150    0.35930    1.000
    C59      C        0.53130    0.22620    0.37780    1.000
    C60      C        0.56170    0.11760    0.30810    1.000
    H38      H        0.57070    0.16710    0.28650    1.000
    C61      C        0.57740    0.27510    0.65590    1.000
    H39      H        0.55240    0.28870    0.67030    1.000
    C62      C        0.62130    0.28140    0.70820    1.000
    H40      H        0.62530    0.30130    0.75640    1.000
    C63      C        0.65790    0.26070    0.69330    1.000
    C64      C        0.65170    0.23870    0.61780    1.000
    H41      H        0.67680    0.22730    0.60340    1.000
    C65      C        0.60510    0.23490    0.56530    1.000
    H42      H        0.60030    0.22120    0.51540    1.000
    C66      C        0.70260    0.26020    0.75900    1.000
    C67      C        0.77460    0.25410    0.83010    1.000
    C68      C        0.82830    0.25540    0.86530    1.000
    C69      C        0.85650    0.28210    0.83180    1.000
    H43      H        0.84490    0.30040    0.78170    1.000
    C70      C        0.90480    0.28220    0.87420    1.000
    H44      H        0.92480    0.30070    0.85060    1.000
    C71      C        0.89240    0.23600    0.97220    1.000
    H45      H        0.90300    0.22170    0.02320    1.000
    C72      C        0.84550    0.23160    0.93380    1.000
    H46      H        0.82620    0.21120    0.95800    1.000
    N7       N        0.56860    0.24950    0.58290    1.000
    N8       N        0.70430    0.24780    0.82540    1.000
    N9       N        0.74790    0.24170    0.86420    1.000
    N10      N        0.74660    0.26130    0.76000    1.000
    N11      N        0.75920    0.28550    0.69410    1.000
    H47      H        0.78770    0.29640    0.70030    1.000
    H48      H        0.73790    0.28850    0.64980    1.000
    N12      N        0.92290    0.25770    0.94520    1.000
    O11      O        0.92192    0.94990    0.20510    1.000
    O12      O        0.97604    0.94700    0.31730    1.000
    O13      O        0.94343    0.04210    0.53830    1.000
    O14      O        0.87160    0.06510    0.52940    1.000
    O15      O        0.77416    0.00440    0.26100    1.000
    O16      O        0.59310    0.03130    0.24260    1.000
    O17      O        0.52440    0.81170    0.38460    1.000
    O18      O        0.50732    0.90050    0.46110    1.000
    O19      O        0.50910    0.24270    0.41910    1.000
    O20      O        0.54800    0.28800    0.34840    1.000
    Zn3      Zn       0.95816    0.91975    0.14393    1.000
    Zn4      Zn       0.49548    0.23549    0.51363    1.000
    C73      C        0.56440    0.45570    0.22490    1.000
    C74      C        0.59960    0.47490    0.19020    1.000
    C75      C        0.64650    0.47850    0.23470    1.000
    H49      H        0.65660    0.46710    0.28610    1.000
    C76      C        0.67810    0.49940    0.20090    1.000
    C77      C        0.66300    0.51940    0.12380    1.000
    H50      H        0.68460    0.53470    0.10230    1.000
    C78      C        0.61650    0.51640    0.07970    1.000
    C79      C        0.60060    0.54190    0.99810    1.000
    C80      C        0.58480    0.49300    0.11410    1.000
    H51      H        0.55320    0.48960    0.08490    1.000
    C81      C        0.74270    0.48670    0.31790    1.000
    H52      H        0.73230    0.42750    0.32740    1.000
    H53      H        0.73100    0.53200    0.34330    1.000
    C82      C        0.79460    0.48970    0.34660    1.000
    C83      C        0.81800    0.50370    0.42290    1.000
    H54      H        0.80130    0.51300    0.45410    1.000
    C84      C        0.86610    0.50390    0.45310    1.000
    H55      H        0.88120    0.51340    0.50450    1.000
    C85      C        0.89110    0.49130    0.41150    1.000
    H56      H        0.92340    0.49220    0.43300    1.000
    C86      C        0.86860    0.47660    0.33470    1.000
    C87      C        0.81990    0.47910    0.30320    1.000
    H57      H        0.80490    0.47340    0.25130    1.000
    C88      C        0.89710    0.45250    0.27980    1.000
    H58      H        0.92530    0.41920    0.30710    1.000
    H59      H        0.87800    0.41640    0.23700    1.000
    C89      C        0.92940    0.53200    0.20990    1.000
    C90      C        0.94370    0.45690    0.18000    1.000
    H60      H        0.93850    0.39870    0.19390    1.000
    C91      C        0.96630    0.46990    0.12820    1.000
    C92      C        0.97920    0.39030    0.09290    1.000
    C93      C        0.97470    0.55640    0.10900    1.000
    H61      H        0.98950    0.56490    0.07500    1.000
    C94      C        0.96080    0.63150    0.14070    1.000
    C95      C        0.96870    0.72620    0.12220    1.000
    C96      C        0.93830    0.61760    0.19190    1.000
    H62      H        0.92930    0.66710    0.21350    1.000
    C97      C        0.92260    0.77510    0.84410    1.000
    H63      H        0.94760    0.78870    0.82970    1.000
    C98      C        0.87870    0.78140    0.79180    1.000
    H64      H        0.87470    0.80130    0.74360    1.000
    C99      C        0.84210    0.76070    0.80670    1.000
    C100     C        0.84830    0.73870    0.88220    1.000
    H65      H        0.82320    0.72730    0.89660    1.000
    C101     C        0.89490    0.73490    0.93470    1.000
    H66      H        0.89970    0.72120    0.98460    1.000
    C102     C        0.79740    0.76020    0.74100    1.000
    C103     C        0.72540    0.75410    0.66990    1.000
    C104     C        0.67170    0.75540    0.63470    1.000
    C105     C        0.64350    0.78210    0.66820    1.000
    H67      H        0.65510    0.80040    0.71830    1.000
    C106     C        0.59520    0.78220    0.62580    1.000
    H68      H        0.57520    0.80070    0.64940    1.000
    C107     C        0.60760    0.73600    0.52780    1.000
    H69      H        0.59700    0.72170    0.47680    1.000
    C108     C        0.65450    0.73160    0.56620    1.000
    H70      H        0.67380    0.71120    0.54200    1.000
    N13      N        0.93140    0.74950    0.91710    1.000
    N14      N        0.79570    0.74780    0.67460    1.000
    N15      N        0.75210    0.74170    0.63580    1.000
    N16      N        0.75340    0.76130    0.74000    1.000
    N17      N        0.74080    0.78550    0.80590    1.000
    H71      H        0.71230    0.79640    0.79970    1.000
    H72      H        0.76210    0.78850    0.85020    1.000
    N18      N        0.57710    0.75770    0.55480    1.000
    O21      O        0.57808    0.44990    0.29490    1.000
    O22      O        0.52396    0.44700    0.18270    1.000
    O23      O        0.55657    0.54210    0.96170    1.000
    O24      O        0.62840    0.56510    0.97060    1.000
    O25      O        0.72584    0.50440    0.23900    1.000
    O26      O        0.90690    0.53130    0.25740    1.000
    O27      O        0.97560    0.31170    0.11540    1.000
    O28      O        0.99268    0.40050    0.03890    1.000
    O29      O        0.99090    0.74270    0.08090    1.000
    O30      O        0.95200    0.78800    0.15160    1.000
    Zn5      Zn       0.54184    0.41975    0.35607    1.000
    Zn6      Zn       0.00452    0.73549    0.98637    1.000
    C109     C        0.06440    0.95570    0.22490    1.000
    C110     C        0.09960    0.97490    0.19020    1.000
    C111     C        0.14650    0.97850    0.23470    1.000
    H73      H        0.15660    0.96710    0.28610    1.000
    C112     C        0.17810    0.99940    0.20090    1.000
    C113     C        0.16300    0.01940    0.12380    1.000
    H74      H        0.18460    0.03470    0.10230    1.000
    C114     C        0.11650    0.01640    0.07970    1.000
    C115     C        0.10060    0.04190    0.99810    1.000
    C116     C        0.08480    0.99300    0.11410    1.000
    H75      H        0.05320    0.98960    0.08490    1.000
    C117     C        0.24270    0.98670    0.31790    1.000
    H76      H        0.23230    0.92750    0.32740    1.000
    H77      H        0.23100    0.03200    0.34330    1.000
    C118     C        0.29460    0.98970    0.34660    1.000
    C119     C        0.31800    0.00370    0.42290    1.000
    H78      H        0.30130    0.01300    0.45410    1.000
    C120     C        0.36610    0.00390    0.45310    1.000
    H79      H        0.38120    0.01340    0.50450    1.000
    C121     C        0.39110    0.99130    0.41150    1.000
    H80      H        0.42340    0.99220    0.43300    1.000
    C122     C        0.36860    0.97660    0.33470    1.000
    C123     C        0.31990    0.97910    0.30320    1.000
    H81      H        0.30490    0.97340    0.25130    1.000
    C124     C        0.39710    0.95250    0.27980    1.000
    H82      H        0.42530    0.91920    0.30710    1.000
    H83      H        0.37800    0.91640    0.23700    1.000
    C125     C        0.42940    0.03200    0.20990    1.000
    C126     C        0.44370    0.95690    0.18000    1.000
    H84      H        0.43850    0.89870    0.19390    1.000
    C127     C        0.46630    0.96990    0.12820    1.000
    C128     C        0.47920    0.89030    0.09290    1.000
    C129     C        0.47470    0.05640    0.10900    1.000
    H85      H        0.48950    0.06490    0.07500    1.000
    C130     C        0.46080    0.13150    0.14070    1.000
    C131     C        0.46870    0.22620    0.12220    1.000
    C132     C        0.43830    0.11760    0.19190    1.000
    H86      H        0.42930    0.16710    0.21350    1.000
    C133     C        0.42260    0.27510    0.84410    1.000
    H87      H        0.44760    0.28870    0.82970    1.000
    C134     C        0.37870    0.28140    0.79180    1.000
    H88      H        0.37470    0.30130    0.74360    1.000
    C135     C        0.34210    0.26070    0.80670    1.000
    C136     C        0.34830    0.23870    0.88220    1.000
    H89      H        0.32320    0.22730    0.89660    1.000
    C137     C        0.39490    0.23490    0.93470    1.000
    H90      H        0.39970    0.22120    0.98460    1.000
    C138     C        0.29740    0.26020    0.74100    1.000
    C139     C        0.22540    0.25410    0.66990    1.000
    C140     C        0.17170    0.25540    0.63470    1.000
    C141     C        0.14350    0.28210    0.66820    1.000
    H91      H        0.15510    0.30040    0.71830    1.000
    C142     C        0.09520    0.28220    0.62580    1.000
    H92      H        0.07520    0.30070    0.64940    1.000
    C143     C        0.10760    0.23600    0.52780    1.000
    H93      H        0.09700    0.22170    0.47680    1.000
    C144     C        0.15450    0.23160    0.56620    1.000
    H94      H        0.17380    0.21120    0.54200    1.000
    N19      N        0.43140    0.24950    0.91710    1.000
    N20      N        0.29570    0.24780    0.67460    1.000
    N21      N        0.25210    0.24170    0.63580    1.000
    N22      N        0.25340    0.26130    0.74000    1.000
    N23      N        0.24080    0.28550    0.80590    1.000
    H95      H        0.21230    0.29640    0.79970    1.000
    H96      H        0.26210    0.28850    0.85020    1.000
    N24      N        0.07710    0.25770    0.55480    1.000
    O31      O        0.07808    0.94990    0.29490    1.000
    O32      O        0.02396    0.94700    0.18270    1.000
    O33      O        0.05657    0.04210    0.96170    1.000
    O34      O        0.12840    0.06510    0.97060    1.000
    O35      O        0.22584    0.00440    0.23900    1.000
    O36      O        0.40690    0.03130    0.25740    1.000
    O37      O        0.47560    0.81170    0.11540    1.000
    O38      O        0.49268    0.90050    0.03890    1.000
    O39      O        0.49090    0.24270    0.08090    1.000
    O40      O        0.45200    0.28800    0.15160    1.000
    Zn7      Zn       0.04184    0.91975    0.35607    1.000
    Zn8      Zn       0.50452    0.23549    0.98637    1.000
    C145     C        0.56440    0.54430    0.72490    1.000
    C146     C        0.59960    0.52510    0.69020    1.000
    C147     C        0.64650    0.52150    0.73470    1.000
    H97      H        0.65660    0.53290    0.78610    1.000
    C148     C        0.67810    0.50060    0.70090    1.000
    C149     C        0.66300    0.48060    0.62380    1.000
    H98      H        0.68460    0.46530    0.60230    1.000
    C150     C        0.61650    0.48360    0.57970    1.000
    C151     C        0.60060    0.45810    0.49810    1.000
    C152     C        0.58480    0.50700    0.61410    1.000
    H99      H        0.55320    0.51040    0.58490    1.000
    C153     C        0.74270    0.51330    0.81790    1.000
    H100     H        0.73230    0.57250    0.82740    1.000
    H101     H        0.73100    0.46800    0.84330    1.000
    C154     C        0.79460    0.51030    0.84660    1.000
    C155     C        0.81800    0.49630    0.92290    1.000
    H102     H        0.80130    0.48700    0.95410    1.000
    C156     C        0.86610    0.49610    0.95310    1.000
    H103     H        0.88120    0.48660    0.00450    1.000
    C157     C        0.89110    0.50870    0.91150    1.000
    H104     H        0.92340    0.50780    0.93300    1.000
    C158     C        0.86860    0.52340    0.83470    1.000
    C159     C        0.81990    0.52090    0.80320    1.000
    H105     H        0.80490    0.52660    0.75130    1.000
    C160     C        0.89710    0.54750    0.77980    1.000
    H106     H        0.92530    0.58080    0.80710    1.000
    H107     H        0.87800    0.58360    0.73700    1.000
    C161     C        0.92940    0.46800    0.70990    1.000
    C162     C        0.94370    0.54310    0.68000    1.000
    H108     H        0.93850    0.60130    0.69390    1.000
    C163     C        0.96630    0.53010    0.62820    1.000
    C164     C        0.97920    0.60970    0.59290    1.000
    C165     C        0.97470    0.44360    0.60900    1.000
    H109     H        0.98950    0.43510    0.57500    1.000
    C166     C        0.96080    0.36850    0.64070    1.000
    C167     C        0.96870    0.27380    0.62220    1.000
    C168     C        0.93830    0.38240    0.69190    1.000
    H110     H        0.92930    0.33290    0.71350    1.000
    C169     C        0.92260    0.22490    0.34410    1.000
    H111     H        0.94760    0.21130    0.32970    1.000
    C170     C        0.87870    0.21860    0.29180    1.000
    H112     H        0.87470    0.19870    0.24360    1.000
    C171     C        0.84210    0.23930    0.30670    1.000
    C172     C        0.84830    0.26130    0.38220    1.000
    H113     H        0.82320    0.27270    0.39660    1.000
    C173     C        0.89490    0.26510    0.43470    1.000
    H114     H        0.89970    0.27880    0.48460    1.000
    C174     C        0.79740    0.23980    0.24100    1.000
    C175     C        0.72540    0.24590    0.16990    1.000
    C176     C        0.67170    0.24460    0.13470    1.000
    C177     C        0.64350    0.21790    0.16820    1.000
    H115     H        0.65510    0.19960    0.21830    1.000
    C178     C        0.59520    0.21780    0.12580    1.000
    H116     H        0.57520    0.19930    0.14940    1.000
    C179     C        0.60760    0.26400    0.02780    1.000
    H117     H        0.59700    0.27830    0.97680    1.000
    C180     C        0.65450    0.26840    0.06620    1.000
    H118     H        0.67380    0.28880    0.04200    1.000
    N25      N        0.93140    0.25050    0.41710    1.000
    N26      N        0.79570    0.25220    0.17460    1.000
    N27      N        0.75210    0.25830    0.13580    1.000
    N28      N        0.75340    0.23870    0.24000    1.000
    N29      N        0.74080    0.21450    0.30590    1.000
    H119     H        0.71230    0.20360    0.29970    1.000
    H120     H        0.76210    0.21150    0.35020    1.000
    N30      N        0.57710    0.24230    0.05480    1.000
    O41      O        0.57808    0.55010    0.79490    1.000
    O42      O        0.52396    0.55300    0.68270    1.000
    O43      O        0.55657    0.45790    0.46170    1.000
    O44      O        0.62840    0.43490    0.47060    1.000
    O45      O        0.72584    0.49560    0.73900    1.000
    O46      O        0.90690    0.46870    0.75740    1.000
    O47      O        0.97560    0.68830    0.61540    1.000
    O48      O        0.99268    0.59950    0.53890    1.000
    O49      O        0.99090    0.25730    0.58090    1.000
    O50      O        0.95200    0.21200    0.65160    1.000
    Zn9      Zn       0.54184    0.58025    0.85607    1.000
    Zn10     Zn       0.00452    0.26451    0.48637    1.000
    C181     C        0.06440    0.04430    0.72490    1.000
    C182     C        0.09960    0.02510    0.69020    1.000
    C183     C        0.14650    0.02150    0.73470    1.000
    H121     H        0.15660    0.03290    0.78610    1.000
    C184     C        0.17810    0.00060    0.70090    1.000
    C185     C        0.16300    0.98060    0.62380    1.000
    H122     H        0.18460    0.96530    0.60230    1.000
    C186     C        0.11650    0.98360    0.57970    1.000
    C187     C        0.10060    0.95810    0.49810    1.000
    C188     C        0.08480    0.00700    0.61410    1.000
    H123     H        0.05320    0.01040    0.58490    1.000
    C189     C        0.24270    0.01330    0.81790    1.000
    H124     H        0.23230    0.07250    0.82740    1.000
    H125     H        0.23100    0.96800    0.84330    1.000
    C190     C        0.29460    0.01030    0.84660    1.000
    C191     C        0.31800    0.99630    0.92290    1.000
    H126     H        0.30130    0.98700    0.95410    1.000
    C192     C        0.36610    0.99610    0.95310    1.000
    H127     H        0.38120    0.98660    0.00450    1.000
    C193     C        0.39110    0.00870    0.91150    1.000
    H128     H        0.42340    0.00780    0.93300    1.000
    C194     C        0.36860    0.02340    0.83470    1.000
    C195     C        0.31990    0.02090    0.80320    1.000
    H129     H        0.30490    0.02660    0.75130    1.000
    C196     C        0.39710    0.04750    0.77980    1.000
    H130     H        0.42530    0.08080    0.80710    1.000
    H131     H        0.37800    0.08360    0.73700    1.000
    C197     C        0.42940    0.96800    0.70990    1.000
    C198     C        0.44370    0.04310    0.68000    1.000
    H132     H        0.43850    0.10130    0.69390    1.000
    C199     C        0.46630    0.03010    0.62820    1.000
    C200     C        0.47920    0.10970    0.59290    1.000
    C201     C        0.47470    0.94360    0.60900    1.000
    H133     H        0.48950    0.93510    0.57500    1.000
    C202     C        0.46080    0.86850    0.64070    1.000
    C203     C        0.46870    0.77380    0.62220    1.000
    C204     C        0.43830    0.88240    0.69190    1.000
    H134     H        0.42930    0.83290    0.71350    1.000
    C205     C        0.42260    0.72490    0.34410    1.000
    H135     H        0.44760    0.71130    0.32970    1.000
    C206     C        0.37870    0.71860    0.29180    1.000
    H136     H        0.37470    0.69870    0.24360    1.000
    C207     C        0.34210    0.73930    0.30670    1.000
    C208     C        0.34830    0.76130    0.38220    1.000
    H137     H        0.32320    0.77270    0.39660    1.000
    C209     C        0.39490    0.76510    0.43470    1.000
    H138     H        0.39970    0.77880    0.48460    1.000
    C210     C        0.29740    0.73980    0.24100    1.000
    C211     C        0.22540    0.74590    0.16990    1.000
    C212     C        0.17170    0.74460    0.13470    1.000
    C213     C        0.14350    0.71790    0.16820    1.000
    H139     H        0.15510    0.69960    0.21830    1.000
    C214     C        0.09520    0.71780    0.12580    1.000
    H140     H        0.07520    0.69930    0.14940    1.000
    C215     C        0.10760    0.76400    0.02780    1.000
    H141     H        0.09700    0.77830    0.97680    1.000
    C216     C        0.15450    0.76840    0.06620    1.000
    H142     H        0.17380    0.78880    0.04200    1.000
    N31      N        0.43140    0.75050    0.41710    1.000
    N32      N        0.29570    0.75220    0.17460    1.000
    N33      N        0.25210    0.75830    0.13580    1.000
    N34      N        0.25340    0.73870    0.24000    1.000
    N35      N        0.24080    0.71450    0.30590    1.000
    H143     H        0.21230    0.70360    0.29970    1.000
    H144     H        0.26210    0.71150    0.35020    1.000
    N36      N        0.07710    0.74230    0.05480    1.000
    O51      O        0.07808    0.05010    0.79490    1.000
    O52      O        0.02396    0.05300    0.68270    1.000
    O53      O        0.05657    0.95790    0.46170    1.000
    O54      O        0.12840    0.93490    0.47060    1.000
    O55      O        0.22584    0.99560    0.73900    1.000
    O56      O        0.40690    0.96870    0.75740    1.000
    O57      O        0.47560    0.18830    0.61540    1.000
    O58      O        0.49268    0.09950    0.53890    1.000
    O59      O        0.49090    0.75730    0.58090    1.000
    O60      O        0.45200    0.71200    0.65160    1.000
    Zn11     Zn       0.04184    0.08025    0.85607    1.000
    Zn12     Zn       0.50452    0.76451    0.48637    1.000
    C217     C        0.43560    0.54430    0.77510    1.000
    C218     C        0.40040    0.52510    0.80980    1.000
    C219     C        0.35350    0.52150    0.76530    1.000
    H145     H        0.34340    0.53290    0.71390    1.000
    C220     C        0.32190    0.50060    0.79910    1.000
    C221     C        0.33700    0.48060    0.87620    1.000
    H146     H        0.31540    0.46530    0.89770    1.000
    C222     C        0.38350    0.48360    0.92030    1.000
    C223     C        0.39940    0.45810    0.00190    1.000
    C224     C        0.41520    0.50700    0.88590    1.000
    H147     H        0.44680    0.51040    0.91510    1.000
    C225     C        0.25730    0.51330    0.68210    1.000
    H148     H        0.26770    0.57250    0.67260    1.000
    H149     H        0.26900    0.46800    0.65670    1.000
    C226     C        0.20540    0.51030    0.65340    1.000
    C227     C        0.18200    0.49630    0.57710    1.000
    H150     H        0.19870    0.48700    0.54590    1.000
    C228     C        0.13390    0.49610    0.54690    1.000
    H151     H        0.11880    0.48660    0.49550    1.000
    C229     C        0.10890    0.50870    0.58850    1.000
    H152     H        0.07660    0.50780    0.56700    1.000
    C230     C        0.13140    0.52340    0.66530    1.000
    C231     C        0.18010    0.52090    0.69680    1.000
    H153     H        0.19510    0.52660    0.74870    1.000
    C232     C        0.10290    0.54750    0.72020    1.000
    H154     H        0.07470    0.58080    0.69290    1.000
    H155     H        0.12200    0.58360    0.76300    1.000
    C233     C        0.07060    0.46800    0.79010    1.000
    C234     C        0.05630    0.54310    0.82000    1.000
    H156     H        0.06150    0.60130    0.80610    1.000
    C235     C        0.03370    0.53010    0.87180    1.000
    C236     C        0.02080    0.60970    0.90710    1.000
    C237     C        0.02530    0.44360    0.89100    1.000
    H157     H        0.01050    0.43510    0.92500    1.000
    C238     C        0.03920    0.36850    0.85930    1.000
    C239     C        0.03130    0.27380    0.87780    1.000
    C240     C        0.06170    0.38240    0.80810    1.000
    H158     H        0.07070    0.33290    0.78650    1.000
    C241     C        0.07740    0.22490    0.15590    1.000
    H159     H        0.05240    0.21130    0.17030    1.000
    C242     C        0.12130    0.21860    0.20820    1.000
    H160     H        0.12530    0.19870    0.25640    1.000
    C243     C        0.15790    0.23930    0.19330    1.000
    C244     C        0.15170    0.26130    0.11780    1.000
    H161     H        0.17680    0.27270    0.10340    1.000
    C245     C        0.10510    0.26510    0.06530    1.000
    H162     H        0.10030    0.27880    0.01540    1.000
    C246     C        0.20260    0.23980    0.25900    1.000
    C247     C        0.27460    0.24590    0.33010    1.000
    C248     C        0.32830    0.24460    0.36530    1.000
    C249     C        0.35650    0.21790    0.33180    1.000
    H163     H        0.34490    0.19960    0.28170    1.000
    C250     C        0.40480    0.21780    0.37420    1.000
    H164     H        0.42480    0.19930    0.35060    1.000
    C251     C        0.39240    0.26400    0.47220    1.000
    H165     H        0.40300    0.27830    0.52320    1.000
    C252     C        0.34550    0.26840    0.43380    1.000
    H166     H        0.32620    0.28880    0.45800    1.000
    N37      N        0.06860    0.25050    0.08290    1.000
    N38      N        0.20430    0.25220    0.32540    1.000
    N39      N        0.24790    0.25830    0.36420    1.000
    N40      N        0.24660    0.23870    0.26000    1.000
    N41      N        0.25920    0.21450    0.19410    1.000
    H167     H        0.28770    0.20360    0.20030    1.000
    H168     H        0.23790    0.21150    0.14980    1.000
    N42      N        0.42290    0.24230    0.44520    1.000
    O61      O        0.42192    0.55010    0.70510    1.000
    O62      O        0.47604    0.55300    0.81730    1.000
    O63      O        0.44343    0.45790    0.03830    1.000
    O64      O        0.37160    0.43490    0.02940    1.000
    O65      O        0.27416    0.49560    0.76100    1.000
    O66      O        0.09310    0.46870    0.74260    1.000
    O67      O        0.02440    0.68830    0.88460    1.000
    O68      O        0.00732    0.59950    0.96110    1.000
    O69      O        0.00910    0.25730    0.91910    1.000
    O70      O        0.04800    0.21200    0.84840    1.000
    Zn13     Zn       0.45816    0.58025    0.64393    1.000
    Zn14     Zn       0.99548    0.26451    0.01363    1.000
    C253     C        0.93560    0.04430    0.77510    1.000
    C254     C        0.90040    0.02510    0.80980    1.000
    C255     C        0.85350    0.02150    0.76530    1.000
    H169     H        0.84340    0.03290    0.71390    1.000
    C256     C        0.82190    0.00060    0.79910    1.000
    C257     C        0.83700    0.98060    0.87620    1.000
    H170     H        0.81540    0.96530    0.89770    1.000
    C258     C        0.88350    0.98360    0.92030    1.000
    C259     C        0.89940    0.95810    0.00190    1.000
    C260     C        0.91520    0.00700    0.88590    1.000
    H171     H        0.94680    0.01040    0.91510    1.000
    C261     C        0.75730    0.01330    0.68210    1.000
    H172     H        0.76770    0.07250    0.67260    1.000
    H173     H        0.76900    0.96800    0.65670    1.000
    C262     C        0.70540    0.01030    0.65340    1.000
    C263     C        0.68200    0.99630    0.57710    1.000
    H174     H        0.69870    0.98700    0.54590    1.000
    C264     C        0.63390    0.99610    0.54690    1.000
    H175     H        0.61880    0.98660    0.49550    1.000
    C265     C        0.60890    0.00870    0.58850    1.000
    H176     H        0.57660    0.00780    0.56700    1.000
    C266     C        0.63140    0.02340    0.66530    1.000
    C267     C        0.68010    0.02090    0.69680    1.000
    H177     H        0.69510    0.02660    0.74870    1.000
    C268     C        0.60290    0.04750    0.72020    1.000
    H178     H        0.57470    0.08080    0.69290    1.000
    H179     H        0.62200    0.08360    0.76300    1.000
    C269     C        0.57060    0.96800    0.79010    1.000
    C270     C        0.55630    0.04310    0.82000    1.000
    H180     H        0.56150    0.10130    0.80610    1.000
    C271     C        0.53370    0.03010    0.87180    1.000
    C272     C        0.52080    0.10970    0.90710    1.000
    C273     C        0.52530    0.94360    0.89100    1.000
    H181     H        0.51050    0.93510    0.92500    1.000
    C274     C        0.53920    0.86850    0.85930    1.000
    C275     C        0.53130    0.77380    0.87780    1.000
    C276     C        0.56170    0.88240    0.80810    1.000
    H182     H        0.57070    0.83290    0.78650    1.000
    C277     C        0.57740    0.72490    0.15590    1.000
    H183     H        0.55240    0.71130    0.17030    1.000
    C278     C        0.62130    0.71860    0.20820    1.000
    H184     H        0.62530    0.69870    0.25640    1.000
    C279     C        0.65790    0.73930    0.19330    1.000
    C280     C        0.65170    0.76130    0.11780    1.000
    H185     H        0.67680    0.77270    0.10340    1.000
    C281     C        0.60510    0.76510    0.06530    1.000
    H186     H        0.60030    0.77880    0.01540    1.000
    C282     C        0.70260    0.73980    0.25900    1.000
    C283     C        0.77460    0.74590    0.33010    1.000
    C284     C        0.82830    0.74460    0.36530    1.000
    C285     C        0.85650    0.71790    0.33180    1.000
    H187     H        0.84490    0.69960    0.28170    1.000
    C286     C        0.90480    0.71780    0.37420    1.000
    H188     H        0.92480    0.69930    0.35060    1.000
    C287     C        0.89240    0.76400    0.47220    1.000
    H189     H        0.90300    0.77830    0.52320    1.000
    C288     C        0.84550    0.76840    0.43380    1.000
    H190     H        0.82620    0.78880    0.45800    1.000
    N43      N        0.56860    0.75050    0.08290    1.000
    N44      N        0.70430    0.75220    0.32540    1.000
    N45      N        0.74790    0.75830    0.36420    1.000
    N46      N        0.74660    0.73870    0.26000    1.000
    N47      N        0.75920    0.71450    0.19410    1.000
    H191     H        0.78770    0.70360    0.20030    1.000
    H192     H        0.73790    0.71150    0.14980    1.000
    N48      N        0.92290    0.74230    0.44520    1.000
    O71      O        0.92192    0.05010    0.70510    1.000
    O72      O        0.97604    0.05300    0.81730    1.000
    O73      O        0.94343    0.95790    0.03830    1.000
    O74      O        0.87160    0.93490    0.02940    1.000
    O75      O        0.77416    0.99560    0.76100    1.000
    O76      O        0.59310    0.96870    0.74260    1.000
    O77      O        0.52440    0.18830    0.88460    1.000
    O78      O        0.50732    0.09950    0.96110    1.000
    O79      O        0.50910    0.75730    0.91910    1.000
    O80      O        0.54800    0.71200    0.84840    1.000
    Zn15     Zn       0.95816    0.08025    0.64393    1.000
    Zn16     Zn       0.49548    0.76451    0.01363    1.000
