# CIF file generated by openbabel 3.1.0, see https://openbabel.org
data_I
_chemical_name_common 'image0'
_cell_length_a 12.048
_cell_length_b 12.28
_cell_length_c 19.092
_cell_angle_alpha 91.92
_cell_angle_beta 98.1
_cell_angle_gamma 117.88
_space_group_name_H-M_alt 'P 1'
_space_group_name_Hall 'P 1'
loop_
    _symmetry_equiv_pos_as_xyz
    x,y,z
loop_
    _atom_site_label
    _atom_site_type_symbol
    _atom_site_fract_x
    _atom_site_fract_y
    _atom_site_fract_z
    _atom_site_occupancy
    Cd1      Cd       0.76625    0.50709    0.27921    1.000
    Cd2      Cd       0.57876    0.67086    0.20026    1.000
    Cd3      Cd       0.42096    0.32541    0.29919    1.000
    O1       O        0.43080    0.31480    0.18133    1.000
    O2       O        0.61580    0.51390    0.34142    1.000
    O3       O        0.61030    0.49370    0.18108    1.000
    O4       O        0.52280    0.21240    0.31614    1.000
    O5       O        0.60700    0.68820    0.32093    1.000
    O6       O        0.31920    0.43740    0.27918    1.000
    O7       O        0.36520    0.56470    0.19356    1.000
    O8       O        0.78600    0.79170    0.19730    1.000
    N1       N        0.45900    0.33030    0.92387    1.000
    O9       O        0.67000    0.29970    0.24790    1.000
    N2       N        0.23010    0.13560    0.27249    1.000
    N3       N        0.60980    0.67410    0.58267    1.000
    N4       N        0.56990    0.85680    0.21874    1.000
    N5       N        0.93770    0.49620    0.23730    1.000
    O10      O        0.87420    0.71040    0.27574    1.000
    C1       C        0.61320    0.61220    0.36056    1.000
    C2       C        0.61410    0.63770    0.43889    1.000
    C3       C        0.49650    0.36730    0.07200    1.000
    C4       C        0.51240    0.39270    0.15116    1.000
    C5       C        0.29430    0.49980    0.23509    1.000
    C6       C        0.66810    0.58870    0.48934    1.000
    H1       H        0.70460    0.54130    0.47540    1.000
    C7       C        0.16970    0.49820    0.23310    1.000
    C8       C        0.55830    0.72090    0.53390    1.000
    H2       H        0.51960    0.76540    0.54900    1.000
    C9       C        0.56000    0.70630    0.46236    1.000
    H3       H        0.52510    0.74210    0.43020    1.000
    C10      C        0.59250    0.21020    0.27500    1.000
    C11      C        0.59720    0.42380    0.03596    1.000
    H4       H        0.67910    0.47590    0.06090    1.000
    C12      C        0.36150    0.27380    0.95910    1.000
    H5       H        0.28010    0.22320    0.93320    1.000
    C13      C        0.87640    0.79460    0.23920    1.000
    C14      C        0.37830    0.28850    0.03250    1.000
    H6       H        0.30950    0.24500    0.05530    1.000
    C15      C        0.00220    0.91340    0.24980    1.000
    C16      C        0.66670    0.61170    0.56033    1.000
    H7       H        0.70690    0.58260    0.59400    1.000
    C17      C        0.10380    0.92890    0.30040    1.000
    H8       H        0.09720    0.86550    0.32780    1.000
    C18      C        0.57530    0.40240    0.96266    1.000
    H9       H        0.64420    0.43950    0.93910    1.000
    C19      C        0.58390    0.08550    0.25460    1.000
    C20      C        0.13150    0.11800    0.22300    1.000
    H10      H        0.14030    0.18250    0.19620    1.000
    C21      C        0.21630    0.04130    0.30980    1.000
    H11      H        0.28500    0.05110    0.34350    1.000
    C22      C        0.50800    0.98230    0.28560    1.000
    H12      H        0.46070    0.98790    0.31870    1.000
    C23      C        0.65040    0.07180    0.20440    1.000
    H13      H        0.69990    0.13890    0.18140    1.000
    C24      C        0.50380    0.87040    0.26650    1.000
    H14      H        0.45290    0.80130    0.28770    1.000
    C25      C        0.01730    0.00950    0.20970    1.000
    H15      H        0.95140    0.00110    0.17420    1.000
    C26      C        0.64210    0.95740    0.18890    1.000
    H16      H        0.68900    0.94980    0.15610    1.000
    C27      C        0.14560    0.59040    0.20800    1.000
    H17      H        0.20700    0.65510    0.18860    1.000
    C28      C        0.03010    0.58670    0.21170    1.000
    H18      H        0.01690    0.65100    0.19550    1.000
    C29      C        0.07210    0.40250    0.26080    1.000
    H19      H        0.08360    0.33870    0.27930    1.000
    C30      C        0.95910    0.40490    0.26010    1.000
    H20      H        0.89350    0.33900    0.27640    1.000
    C31      C        0.97590    0.56800    0.41300    1.000
    C32      C        0.03400    0.54830    0.48260    1.000
    O11      O        0.03270    0.65250    0.38460    1.000
    C33      C        0.80070    0.39820    0.42080    1.000
    C34      C        0.85660    0.38000    0.48710    1.000
    N6       N        0.85730    0.49060    0.38970    1.000
    O12      O        0.14270    0.50940    0.61030    1.000
    Cd4      Cd       0.23375    0.49291    0.72079    1.000
    Cd5      Cd       0.42124    0.32914    0.79975    1.000
    Cd6      Cd       0.57904    0.67459    0.70081    1.000
    O13      O        0.56920    0.68520    0.81867    1.000
    O14      O        0.38420    0.48610    0.65858    1.000
    O15      O        0.38970    0.50630    0.81892    1.000
    O16      O        0.47720    0.78760    0.68386    1.000
    O17      O        0.39300    0.31180    0.67907    1.000
    O18      O        0.68080    0.56260    0.72082    1.000
    O19      O        0.63480    0.43530    0.80644    1.000
    O20      O        0.21400    0.20830    0.80270    1.000
    N7       N        0.54100    0.66970    0.07613    1.000
    O21      O        0.33000    0.70030    0.75210    1.000
    N8       N        0.76990    0.86440    0.72751    1.000
    N9       N        0.39020    0.32590    0.41733    1.000
    N10      N        0.43010    0.14320    0.78126    1.000
    N11      N        0.06230    0.50380    0.76270    1.000
    O22      O        0.12580    0.28960    0.72426    1.000
    C35      C        0.38680    0.38780    0.63944    1.000
    C36      C        0.38590    0.36230    0.56111    1.000
    C37      C        0.50350    0.63270    0.92800    1.000
    C38      C        0.48760    0.60730    0.84884    1.000
    C39      C        0.70570    0.50020    0.76491    1.000
    C40      C        0.33190    0.41130    0.51066    1.000
    H21      H        0.29540    0.45870    0.52460    1.000
    C41      C        0.83030    0.50180    0.76690    1.000
    C42      C        0.44170    0.27910    0.46610    1.000
    H22      H        0.48040    0.23460    0.45100    1.000
    C43      C        0.44000    0.29370    0.53764    1.000
    H23      H        0.47490    0.25790    0.56980    1.000
    C44      C        0.40750    0.78980    0.72500    1.000
    C45      C        0.40280    0.57620    0.96404    1.000
    H24      H        0.32090    0.52410    0.93910    1.000
    C46      C        0.63850    0.72620    0.04090    1.000
    H25      H        0.71990    0.77680    0.06680    1.000
    C47      C        0.12360    0.20540    0.76080    1.000
    C48      C        0.62170    0.71150    0.96750    1.000
    H26      H        0.69050    0.75500    0.94470    1.000
    C49      C        0.99780    0.08660    0.75020    1.000
    C50      C        0.33330    0.38830    0.43967    1.000
    H27      H        0.29310    0.41740    0.40600    1.000
    C51      C        0.89620    0.07110    0.69960    1.000
    H28      H        0.90280    0.13450    0.67220    1.000
    C52      C        0.42470    0.59760    0.03734    1.000
    H29      H        0.35580    0.56050    0.06090    1.000
    C53      C        0.41610    0.91450    0.74540    1.000
    C54      C        0.86850    0.88200    0.77700    1.000
    H30      H        0.85970    0.81750    0.80380    1.000
    C55      C        0.78370    0.95870    0.69020    1.000
    H31      H        0.71500    0.94890    0.65650    1.000
    C56      C        0.49200    0.01770    0.71440    1.000
    H32      H        0.53930    0.01210    0.68130    1.000
    C57      C        0.34960    0.92820    0.79560    1.000
    H33      H        0.30010    0.86110    0.81860    1.000
    C58      C        0.49620    0.12960    0.73350    1.000
    H34      H        0.54710    0.19870    0.71230    1.000
    C59      C        0.98270    0.99050    0.79030    1.000
    H35      H        0.04860    0.99890    0.82580    1.000
    C60      C        0.35790    0.04260    0.81110    1.000
    H36      H        0.31100    0.05020    0.84390    1.000
    C61      C        0.85440    0.40960    0.79200    1.000
    H37      H        0.79300    0.34490    0.81140    1.000
    C62      C        0.96990    0.41330    0.78830    1.000
    H38      H        0.98310    0.34900    0.80450    1.000
    C63      C        0.92790    0.59750    0.73920    1.000
    H39      H        0.91640    0.66130    0.72070    1.000
    C64      C        0.04090    0.59510    0.73990    1.000
    H40      H        0.10650    0.66100    0.72360    1.000
    C65      C        0.02410    0.43200    0.58700    1.000
    C66      C        0.96600    0.45170    0.51740    1.000
    O23      O        0.96730    0.34750    0.61540    1.000
    C67      C        0.19930    0.60180    0.57920    1.000
    C68      C        0.14340    0.62000    0.51290    1.000
