# CIF file generated by openbabel 3.1.0, see https://openbabel.org
data_I
_chemical_name_common 'image0'
_cell_length_a 15.578
_cell_length_b 19.131
_cell_length_c 25.039
_cell_angle_alpha 90
_cell_angle_beta 90
_cell_angle_gamma 90
_space_group_name_H-M_alt 'P 1'
_space_group_name_Hall 'P 1'
loop_
    _symmetry_equiv_pos_as_xyz
    x,y,z
loop_
    _atom_site_label
    _atom_site_type_symbol
    _atom_site_fract_x
    _atom_site_fract_y
    _atom_site_fract_z
    _atom_site_occupancy
    Zn1      Zn       0.54678    0.16217    0.72594    1.000
    N1       N        0.56140    0.12990    0.80187    1.000
    N2       N        0.43390    0.21410    0.71910    1.000
    O1       O        0.66790    0.10290    0.69030    1.000
    O2       O        0.53860    0.09550    0.66700    1.000
    N3       N        0.62210    0.16550    0.83217    1.000
    C1       C        0.52890    0.08210    0.83310    1.000
    C2       C        0.35400    0.19490    0.71020    1.000
    C3       C        0.62200    0.13590    0.87940    1.000
    N4       N        0.56340    0.08450    0.88260    1.000
    C4       C        0.46300    0.03200    0.81650    1.000
    C5       C        0.32600    0.12030    0.70790    1.000
    C6       C        0.68070    0.15540    0.92360    1.000
    Zn2      Zn       0.52553    0.03584    0.94986    1.000
    H1       H        0.40730    0.04980    0.82560    1.000
    H2       H        0.47220    0.98820    0.83440    1.000
    H3       H        0.46640    0.02510    0.77860    1.000
    H4       H        0.37290    0.09060    0.71790    1.000
    H5       H        0.30790    0.10920    0.67230    1.000
    H6       H        0.27900    0.11330    0.73210    1.000
    H7       H        0.69520    0.11440    0.94380    1.000
    H8       H        0.65280    0.18860    0.94650    1.000
    H9       H        0.73200    0.17570    0.90910    1.000
    O3       O        0.51400    0.12050    0.99900    1.000
    O4       O        0.39570    0.03920    0.93950    1.000
    O5       O        0.64040    0.01620    0.98630    1.000
    O6       O        0.52160    0.93400    0.92590    1.000
    C7       C        0.49370    0.11940    0.04810    1.000
    C8       C        0.34280    0.01200    0.96950    1.000
    C9       C        0.48890    0.18700    0.07690    1.000
    C10      C        0.25080    0.00980    0.95180    1.000
    C11      C        0.47620    0.18820    0.13010    1.000
    C12      C        0.19100    0.97040    0.97930    1.000
    C13      C        0.22710    0.04390    0.90580    1.000
    C14      C        0.11540    0.08390    0.84080    1.000
    H10      H        0.47350    0.14600    0.14840    1.000
    C15      C        0.10800    0.96370    0.95970    1.000
    H11      H        0.20630    0.94840    0.01100    1.000
    C16      C        0.14280    0.04230    0.88850    1.000
    H12      H        0.26800    0.06830    0.88620    1.000
    C17      C        0.08030    0.99880    0.91460    1.000
    O7       O        0.05200    0.91390    0.98380    1.000
    H13      H        0.02440    0.99450    0.90180    1.000
    H14      H        0.06450    0.90810    0.01530    1.000
    H15      H        0.06980    0.93460    0.97750    1.000
    H16      H        0.41550    0.26760    0.22130    1.000
    Zn3      Zn       0.95322    0.83783    0.22594    1.000
    N5       N        0.93860    0.87010    0.30187    1.000
    N6       N        0.06610    0.78590    0.21910    1.000
    O8       O        0.83210    0.89710    0.19030    1.000
    O9       O        0.96140    0.90450    0.16700    1.000
    N7       N        0.87790    0.83450    0.33217    1.000
    C18      C        0.97110    0.91790    0.33310    1.000
    C19      C        0.14600    0.80510    0.21020    1.000
    C20      C        0.87800    0.86410    0.37940    1.000
    N8       N        0.93660    0.91550    0.38260    1.000
    C21      C        0.03700    0.96800    0.31650    1.000
    C22      C        0.17400    0.87970    0.20790    1.000
    C23      C        0.81930    0.84460    0.42360    1.000
    Zn4      Zn       0.97447    0.96416    0.44986    1.000
    H17      H        0.09270    0.95020    0.32560    1.000
    H18      H        0.02780    0.01180    0.33440    1.000
    H19      H        0.03360    0.97490    0.27860    1.000
    H20      H        0.12710    0.90940    0.21790    1.000
    H21      H        0.19210    0.89080    0.17230    1.000
    H22      H        0.22100    0.88670    0.23210    1.000
    H23      H        0.80480    0.88560    0.44380    1.000
    H24      H        0.84720    0.81140    0.44650    1.000
    H25      H        0.76800    0.82430    0.40910    1.000
    O10      O        0.98600    0.87950    0.49900    1.000
    O11      O        0.10430    0.96080    0.43950    1.000
    O12      O        0.85960    0.98380    0.48630    1.000
    O13      O        0.97840    0.06600    0.42590    1.000
    C24      C        0.00630    0.88060    0.54810    1.000
    C25      C        0.15720    0.98800    0.46950    1.000
    C26      C        0.01110    0.81300    0.57690    1.000
    C27      C        0.24920    0.99020    0.45180    1.000
    C28      C        0.02380    0.81180    0.63010    1.000
    C29      C        0.30900    0.02960    0.47930    1.000
    C30      C        0.27290    0.95610    0.40580    1.000
    C31      C        0.38460    0.91610    0.34080    1.000
    H26      H        0.02650    0.85400    0.64840    1.000
    C32      C        0.39200    0.03630    0.45970    1.000
    H27      H        0.29370    0.05160    0.51100    1.000
    C33      C        0.35720    0.95770    0.38850    1.000
    H28      H        0.23200    0.93170    0.38620    1.000
    C34      C        0.41970    0.00120    0.41460    1.000
    O14      O        0.44800    0.08610    0.48380    1.000
    H29      H        0.47560    0.00550    0.40180    1.000
    H30      H        0.43550    0.09190    0.51530    1.000
    H31      H        0.43020    0.06540    0.47750    1.000
    H32      H        0.08450    0.73240    0.72130    1.000
    Zn5      Zn       0.45322    0.66217    0.27406    1.000
    N9       N        0.43860    0.62990    0.19813    1.000
    N10      N        0.56610    0.71410    0.28090    1.000
    O15      O        0.33210    0.60290    0.30970    1.000
    O16      O        0.46140    0.59550    0.33300    1.000
    N11      N        0.37790    0.66550    0.16783    1.000
    C35      C        0.47110    0.58210    0.16690    1.000
    C36      C        0.64600    0.69490    0.28980    1.000
    C37      C        0.37800    0.63590    0.12060    1.000
    N12      N        0.43660    0.58450    0.11740    1.000
    C38      C        0.53700    0.53200    0.18350    1.000
    C39      C        0.67400    0.62030    0.29210    1.000
    C40      C        0.31930    0.65540    0.07640    1.000
    Zn6      Zn       0.47447    0.53584    0.05014    1.000
    H33      H        0.59270    0.54980    0.17440    1.000
    H34      H        0.52780    0.48820    0.16560    1.000
    H35      H        0.53360    0.52510    0.22140    1.000
    H36      H        0.62710    0.59060    0.28210    1.000
    H37      H        0.69210    0.60920    0.32770    1.000
    H38      H        0.72100    0.61330    0.26790    1.000
    H39      H        0.30480    0.61440    0.05620    1.000
    H40      H        0.34720    0.68860    0.05350    1.000
    H41      H        0.26800    0.67570    0.09090    1.000
    O17      O        0.48600    0.62050    0.00100    1.000
    O18      O        0.60430    0.53920    0.06050    1.000
    O19      O        0.35960    0.51620    0.01370    1.000
    O20      O        0.47840    0.43400    0.07410    1.000
    C41      C        0.50630    0.61940    0.95190    1.000
    C42      C        0.65720    0.51200    0.03050    1.000
    C43      C        0.51110    0.68700    0.92310    1.000
    C44      C        0.74920    0.50980    0.04820    1.000
    C45      C        0.52380    0.68820    0.86990    1.000
    C46      C        0.80900    0.47040    0.02070    1.000
    C47      C        0.77290    0.54390    0.09420    1.000
    C48      C        0.88460    0.58390    0.15920    1.000
    H42      H        0.52650    0.64600    0.85160    1.000
    C49      C        0.89200    0.46370    0.04030    1.000
    H43      H        0.79370    0.44840    0.98900    1.000
    C50      C        0.85720    0.54230    0.11150    1.000
    H44      H        0.73200    0.56830    0.11380    1.000
    C51      C        0.91970    0.49880    0.08540    1.000
    O21      O        0.94800    0.41390    0.01620    1.000
    H45      H        0.97560    0.49450    0.09820    1.000
    H46      H        0.93550    0.40810    0.98470    1.000
    H47      H        0.93020    0.43460    0.02250    1.000
    H48      H        0.58450    0.76760    0.77870    1.000
    Zn7      Zn       0.04678    0.33783    0.77406    1.000
    N13      N        0.06140    0.37010    0.69813    1.000
    N14      N        0.93390    0.28590    0.78090    1.000
    O22      O        0.16790    0.39710    0.80970    1.000
    O23      O        0.03860    0.40450    0.83300    1.000
    N15      N        0.12210    0.33450    0.66783    1.000
    C52      C        0.02890    0.41790    0.66690    1.000
    C53      C        0.85400    0.30510    0.78980    1.000
    C54      C        0.12200    0.36410    0.62060    1.000
    N16      N        0.06340    0.41550    0.61740    1.000
    C55      C        0.96300    0.46800    0.68350    1.000
    C56      C        0.82600    0.37970    0.79210    1.000
    C57      C        0.18070    0.34460    0.57640    1.000
    Zn8      Zn       0.02553    0.46416    0.55014    1.000
    H49      H        0.90730    0.45020    0.67440    1.000
    H50      H        0.97220    0.51180    0.66560    1.000
    H51      H        0.96640    0.47490    0.72140    1.000
    H52      H        0.87290    0.40940    0.78210    1.000
    H53      H        0.80790    0.39080    0.82770    1.000
    H54      H        0.77900    0.38670    0.76790    1.000
    H55      H        0.19520    0.38560    0.55620    1.000
    H56      H        0.15280    0.31140    0.55350    1.000
    H57      H        0.23200    0.32430    0.59090    1.000
    O24      O        0.01400    0.37950    0.50100    1.000
    O25      O        0.89570    0.46080    0.56050    1.000
    O26      O        0.14040    0.48380    0.51370    1.000
    O27      O        0.02160    0.56600    0.57410    1.000
    C58      C        0.99370    0.38060    0.45190    1.000
    C59      C        0.84280    0.48800    0.53050    1.000
    C60      C        0.98890    0.31300    0.42310    1.000
    C61      C        0.75080    0.49020    0.54820    1.000
    C62      C        0.97620    0.31180    0.36990    1.000
    C63      C        0.69100    0.52960    0.52070    1.000
    C64      C        0.72710    0.45610    0.59420    1.000
    C65      C        0.61540    0.41610    0.65920    1.000
    H58      H        0.97350    0.35400    0.35160    1.000
    C66      C        0.60800    0.53630    0.54030    1.000
    H59      H        0.70630    0.55160    0.48900    1.000
    C67      C        0.64280    0.45770    0.61150    1.000
    H60      H        0.76800    0.43170    0.61380    1.000
    C68      C        0.58030    0.50120    0.58540    1.000
    O28      O        0.55200    0.58610    0.51620    1.000
    H61      H        0.52440    0.50550    0.59820    1.000
    H62      H        0.56450    0.59190    0.48470    1.000
    H63      H        0.56980    0.56540    0.52250    1.000
    H64      H        0.91550    0.23240    0.27870    1.000
    Zn9      Zn       0.45322    0.83783    0.27406    1.000
    N17      N        0.43860    0.87010    0.19813    1.000
    N18      N        0.56610    0.78590    0.28090    1.000
    O29      O        0.33210    0.89710    0.30970    1.000
    O30      O        0.46140    0.90450    0.33300    1.000
    N19      N        0.37790    0.83450    0.16783    1.000
    C69      C        0.47110    0.91790    0.16690    1.000
    C70      C        0.64600    0.80510    0.28980    1.000
    C71      C        0.37800    0.86410    0.12060    1.000
    N20      N        0.43660    0.91550    0.11740    1.000
    C72      C        0.53700    0.96800    0.18350    1.000
    C73      C        0.67400    0.87970    0.29210    1.000
    C74      C        0.31930    0.84460    0.07640    1.000
    Zn10     Zn       0.47447    0.96416    0.05014    1.000
    H65      H        0.59270    0.95020    0.17440    1.000
    H66      H        0.52780    0.01180    0.16560    1.000
    H67      H        0.53360    0.97490    0.22140    1.000
    H68      H        0.62710    0.90940    0.28210    1.000
    H69      H        0.69210    0.89080    0.32770    1.000
    H70      H        0.72100    0.88670    0.26790    1.000
    H71      H        0.30480    0.88560    0.05620    1.000
    H72      H        0.34720    0.81140    0.05350    1.000
    H73      H        0.26800    0.82430    0.09090    1.000
    O31      O        0.48600    0.87950    0.00100    1.000
    O32      O        0.60430    0.96080    0.06050    1.000
    O33      O        0.35960    0.98380    0.01370    1.000
    O34      O        0.47840    0.06600    0.07410    1.000
    C75      C        0.50630    0.88060    0.95190    1.000
    C76      C        0.65720    0.98800    0.03050    1.000
    C77      C        0.51110    0.81300    0.92310    1.000
    C78      C        0.74920    0.99020    0.04820    1.000
    C79      C        0.52380    0.81180    0.86990    1.000
    C80      C        0.80900    0.02960    0.02070    1.000
    C81      C        0.77290    0.95610    0.09420    1.000
    C82      C        0.88460    0.91610    0.15920    1.000
    H74      H        0.52650    0.85400    0.85160    1.000
    C83      C        0.89200    0.03630    0.04030    1.000
    H75      H        0.79370    0.05160    0.98900    1.000
    C84      C        0.85720    0.95770    0.11150    1.000
    H76      H        0.73200    0.93170    0.11380    1.000
    C85      C        0.91970    0.00120    0.08540    1.000
    O35      O        0.94800    0.08610    0.01620    1.000
    H77      H        0.97560    0.00550    0.09820    1.000
    H78      H        0.93550    0.09190    0.98470    1.000
    H79      H        0.93020    0.06540    0.02250    1.000
    H80      H        0.58450    0.73240    0.77870    1.000
    Zn11     Zn       0.04678    0.16217    0.77406    1.000
    N21      N        0.06140    0.12990    0.69813    1.000
    N22      N        0.93390    0.21410    0.78090    1.000
    O36      O        0.16790    0.10290    0.80970    1.000
    O37      O        0.03860    0.09550    0.83300    1.000
    N23      N        0.12210    0.16550    0.66783    1.000
    C86      C        0.02890    0.08210    0.66690    1.000
    C87      C        0.85400    0.19490    0.78980    1.000
    C88      C        0.12200    0.13590    0.62060    1.000
    N24      N        0.06340    0.08450    0.61740    1.000
    C89      C        0.96300    0.03200    0.68350    1.000
    C90      C        0.82600    0.12030    0.79210    1.000
    C91      C        0.18070    0.15540    0.57640    1.000
    Zn12     Zn       0.02553    0.03584    0.55014    1.000
    H81      H        0.90730    0.04980    0.67440    1.000
    H82      H        0.97220    0.98820    0.66560    1.000
    H83      H        0.96640    0.02510    0.72140    1.000
    H84      H        0.87290    0.09060    0.78210    1.000
    H85      H        0.80790    0.10920    0.82770    1.000
    H86      H        0.77900    0.11330    0.76790    1.000
    H87      H        0.19520    0.11440    0.55620    1.000
    H88      H        0.15280    0.18860    0.55350    1.000
    H89      H        0.23200    0.17570    0.59090    1.000
    O38      O        0.01400    0.12050    0.50100    1.000
    O39      O        0.89570    0.03920    0.56050    1.000
    O40      O        0.14040    0.01620    0.51370    1.000
    O41      O        0.02160    0.93400    0.57410    1.000
    C92      C        0.99370    0.11940    0.45190    1.000
    C93      C        0.84280    0.01200    0.53050    1.000
    C94      C        0.98890    0.18700    0.42310    1.000
    C95      C        0.75080    0.00980    0.54820    1.000
    C96      C        0.97620    0.18820    0.36990    1.000
    C97      C        0.69100    0.97040    0.52070    1.000
    C98      C        0.72710    0.04390    0.59420    1.000
    C99      C        0.61540    0.08390    0.65920    1.000
    H90      H        0.97350    0.14600    0.35160    1.000
    C100     C        0.60800    0.96370    0.54030    1.000
    H91      H        0.70630    0.94840    0.48900    1.000
    C101     C        0.64280    0.04230    0.61150    1.000
    H92      H        0.76800    0.06830    0.61380    1.000
    C102     C        0.58030    0.99880    0.58540    1.000
    O42      O        0.55200    0.91390    0.51620    1.000
    H93      H        0.52440    0.99450    0.59820    1.000
    H94      H        0.56450    0.90810    0.48470    1.000
    H95      H        0.56980    0.93460    0.52250    1.000
    H96      H        0.91550    0.26760    0.27870    1.000
    Zn13     Zn       0.54678    0.33783    0.72594    1.000
    N25      N        0.56140    0.37010    0.80187    1.000
    N26      N        0.43390    0.28590    0.71910    1.000
    O43      O        0.66790    0.39710    0.69030    1.000
    O44      O        0.53860    0.40450    0.66700    1.000
    N27      N        0.62210    0.33450    0.83217    1.000
    C103     C        0.52890    0.41790    0.83310    1.000
    C104     C        0.35400    0.30510    0.71020    1.000
    C105     C        0.62200    0.36410    0.87940    1.000
    N28      N        0.56340    0.41550    0.88260    1.000
    C106     C        0.46300    0.46800    0.81650    1.000
    C107     C        0.32600    0.37970    0.70790    1.000
    C108     C        0.68070    0.34460    0.92360    1.000
    Zn14     Zn       0.52553    0.46416    0.94986    1.000
    H97      H        0.40730    0.45020    0.82560    1.000
    H98      H        0.47220    0.51180    0.83440    1.000
    H99      H        0.46640    0.47490    0.77860    1.000
    H100     H        0.37290    0.40940    0.71790    1.000
    H101     H        0.30790    0.39080    0.67230    1.000
    H102     H        0.27900    0.38670    0.73210    1.000
    H103     H        0.69520    0.38560    0.94380    1.000
    H104     H        0.65280    0.31140    0.94650    1.000
    H105     H        0.73200    0.32430    0.90910    1.000
    O45      O        0.51400    0.37950    0.99900    1.000
    O46      O        0.39570    0.46080    0.93950    1.000
    O47      O        0.64040    0.48380    0.98630    1.000
    O48      O        0.52160    0.56600    0.92590    1.000
    C109     C        0.49370    0.38060    0.04810    1.000
    C110     C        0.34280    0.48800    0.96950    1.000
    C111     C        0.48890    0.31300    0.07690    1.000
    C112     C        0.25080    0.49020    0.95180    1.000
    C113     C        0.47620    0.31180    0.13010    1.000
    C114     C        0.19100    0.52960    0.97930    1.000
    C115     C        0.22710    0.45610    0.90580    1.000
    C116     C        0.11540    0.41610    0.84080    1.000
    H106     H        0.47350    0.35400    0.14840    1.000
    C117     C        0.10800    0.53630    0.95970    1.000
    H107     H        0.20630    0.55160    0.01100    1.000
    C118     C        0.14280    0.45770    0.88850    1.000
    H108     H        0.26800    0.43170    0.88620    1.000
    C119     C        0.08030    0.50120    0.91460    1.000
    O49      O        0.05200    0.58610    0.98380    1.000
    H109     H        0.02440    0.50550    0.90180    1.000
    H110     H        0.06450    0.59190    0.01530    1.000
    H111     H        0.06980    0.56540    0.97750    1.000
    H112     H        0.41550    0.23240    0.22130    1.000
    Zn15     Zn       0.95322    0.66217    0.22594    1.000
    N29      N        0.93860    0.62990    0.30187    1.000
    N30      N        0.06610    0.71410    0.21910    1.000
    O50      O        0.83210    0.60290    0.19030    1.000
    O51      O        0.96140    0.59550    0.16700    1.000
    N31      N        0.87790    0.66550    0.33217    1.000
    C120     C        0.97110    0.58210    0.33310    1.000
    C121     C        0.14600    0.69490    0.21020    1.000
    C122     C        0.87800    0.63590    0.37940    1.000
    N32      N        0.93660    0.58450    0.38260    1.000
    C123     C        0.03700    0.53200    0.31650    1.000
    C124     C        0.17400    0.62030    0.20790    1.000
    C125     C        0.81930    0.65540    0.42360    1.000
    Zn16     Zn       0.97447    0.53584    0.44986    1.000
    H113     H        0.09270    0.54980    0.32560    1.000
    H114     H        0.02780    0.48820    0.33440    1.000
    H115     H        0.03360    0.52510    0.27860    1.000
    H116     H        0.12710    0.59060    0.21790    1.000
    H117     H        0.19210    0.60920    0.17230    1.000
    H118     H        0.22100    0.61330    0.23210    1.000
    H119     H        0.80480    0.61440    0.44380    1.000
    H120     H        0.84720    0.68860    0.44650    1.000
    H121     H        0.76800    0.67570    0.40910    1.000
    O52      O        0.98600    0.62050    0.49900    1.000
    O53      O        0.10430    0.53920    0.43950    1.000
    O54      O        0.85960    0.51620    0.48630    1.000
    O55      O        0.97840    0.43400    0.42590    1.000
    C126     C        0.00630    0.61940    0.54810    1.000
    C127     C        0.15720    0.51200    0.46950    1.000
    C128     C        0.01110    0.68700    0.57690    1.000
    C129     C        0.24920    0.50980    0.45180    1.000
    C130     C        0.02380    0.68820    0.63010    1.000
    C131     C        0.30900    0.47040    0.47930    1.000
    C132     C        0.27290    0.54390    0.40580    1.000
    C133     C        0.38460    0.58390    0.34080    1.000
    H122     H        0.02650    0.64600    0.64840    1.000
    C134     C        0.39200    0.46370    0.45970    1.000
    H123     H        0.29370    0.44840    0.51100    1.000
    C135     C        0.35720    0.54230    0.38850    1.000
    H124     H        0.23200    0.56830    0.38620    1.000
    C136     C        0.41970    0.49880    0.41460    1.000
    O56      O        0.44800    0.41390    0.48380    1.000
    H125     H        0.47560    0.49450    0.40180    1.000
    H126     H        0.43550    0.40810    0.51530    1.000
    H127     H        0.43020    0.43460    0.47750    1.000
    H128     H        0.08450    0.76760    0.72130    1.000
    O57      O        0.61810    0.25000    0.73090    1.000
    Zn17     Zn       0.67700    0.25000    0.80116    1.000
    H129     H        0.66250    0.25000    0.71140    1.000
    N33      N        0.30260    0.25000    0.70480    1.000
    C137     C        0.49830    0.25000    0.05020    1.000
    C138     C        0.46700    0.25000    0.15850    1.000
    H130     H        0.51110    0.25000    0.01400    1.000
    O58      O        0.46120    0.25000    0.21220    1.000
    H131     H        0.45520    0.25000    0.19490    1.000
    O59      O        0.88190    0.75000    0.23090    1.000
    Zn18     Zn       0.82300    0.75000    0.30116    1.000
    H132     H        0.83750    0.75000    0.21140    1.000
    N34      N        0.19740    0.75000    0.20480    1.000
    C139     C        0.00170    0.75000    0.55020    1.000
    C140     C        0.03300    0.75000    0.65850    1.000
    H133     H        0.98890    0.75000    0.51400    1.000
    O60      O        0.03880    0.75000    0.71220    1.000
    H134     H        0.04480    0.75000    0.69490    1.000
    O61      O        0.38190    0.75000    0.26910    1.000
    Zn19     Zn       0.32300    0.75000    0.19884    1.000
    H135     H        0.33750    0.75000    0.28860    1.000
    N35      N        0.69740    0.75000    0.29520    1.000
    C141     C        0.50170    0.75000    0.94980    1.000
    C142     C        0.53300    0.75000    0.84150    1.000
    H136     H        0.48890    0.75000    0.98600    1.000
    O62      O        0.53880    0.75000    0.78780    1.000
    H137     H        0.54480    0.75000    0.80510    1.000
    O63      O        0.11810    0.25000    0.76910    1.000
    Zn20     Zn       0.17700    0.25000    0.69884    1.000
    H138     H        0.16250    0.25000    0.78860    1.000
    N36      N        0.80260    0.25000    0.79520    1.000
    C143     C        0.99830    0.25000    0.44980    1.000
    C144     C        0.96700    0.25000    0.34150    1.000
    H139     H        0.01110    0.25000    0.48600    1.000
    O64      O        0.96120    0.25000    0.28780    1.000
    H140     H        0.95520    0.25000    0.30510    1.000
