# CIF file generated by openbabel 3.1.0, see https://openbabel.org
data_I
_chemical_name_common 'image0'
_cell_length_a 21.4745
_cell_length_b 7.4295
_cell_length_c 26.173
_cell_angle_alpha 90
_cell_angle_beta 127.366
_cell_angle_gamma 90
_space_group_name_H-M_alt 'P 1'
_space_group_name_Hall 'P 1'
loop_
    _symmetry_equiv_pos_as_xyz
    x,y,z
loop_
    _atom_site_label
    _atom_site_type_symbol
    _atom_site_fract_x
    _atom_site_fract_y
    _atom_site_fract_z
    _atom_site_occupancy
    Ba1      Ba       0.54553    0.20736    0.73378    1.000
    Ba2      Ba       0.04870    0.97090    0.31093    1.000
    F1       F        0.35904    0.46860    0.51315    1.000
    F2       F        0.23839    0.48570    0.38998    1.000
    F3       F        0.06587    0.42920    0.44316    1.000
    F4       F        0.18585    0.42520    0.56698    1.000
    F5       F        0.27083    0.11780    0.65661    1.000
    F6       F        0.14422    0.15050    0.64894    1.000
    F7       F        0.29770    0.35780    0.86381    1.000
    F8       F        0.42256    0.33980    0.86864    1.000
    O1       O        0.40150    0.34310    0.63339    1.000
    O2       O        0.34410    0.56240    0.64992    1.000
    O3       O        0.07050    0.61210    0.31403    1.000
    O4       O        0.03560    0.33380    0.31744    1.000
    O5       O        0.46982    0.34320    0.78682    1.000
    O6       O        0.43480    0.06610    0.74890    1.000
    O7       O        0.13800    0.39460    0.78160    1.000
    O8       O        0.09140    0.14690    0.72140    1.000
    C1       C        0.34780    0.45080    0.61640    1.000
    C2       C        0.27740    0.44720    0.54540    1.000
    C3       C        0.28690    0.45900    0.49730    1.000
    C4       C        0.22420    0.46720    0.43350    1.000
    C5       C        0.14820    0.45710    0.41250    1.000
    C6       C        0.13870    0.43920    0.46000    1.000
    C7       C        0.20100    0.43820    0.52420    1.000
    C8       C        0.07920    0.46890    0.34260    1.000
    C9       C        0.42480    0.21180    0.76640    1.000
    C10      C        0.35190    0.22820    0.76320    1.000
    C11      C        0.27900    0.17940    0.70830    1.000
    C12      C        0.21270    0.19360    0.70530    1.000
    C13      C        0.21450    0.25450    0.75620    1.000
    C14      C        0.28780    0.30200    0.81080    1.000
    C15      C        0.35430    0.29160    0.81350    1.000
    C16      C        0.14130    0.26700    0.75350    1.000
    O9       O        0.02410    0.95200    0.40430    1.000
    C17      C        0.06470    0.00640    0.47080    1.000
    H1       H        0.03530    0.09450    0.47570    1.000
    H2       H        0.11700    0.05150    0.48990    1.000
    C18      C        0.06600    0.82230    0.49730    1.000
    H3       H        0.09180    0.83190    0.54260    1.000
    H4       H        0.09390    0.73840    0.49000    1.000
    H5       H        0.01330    0.78090    0.47600    1.000
    O10      O        0.06620    0.96900    0.41850    1.000
    C19      C        0.04220    0.84400    0.44490    1.000
    H6       H        0.04000    0.72310    0.43000    1.000
    H7       H        0.99080    0.87560    0.43240    1.000
    C20      C        0.10470    0.85600    0.51930    1.000
    H8       H        0.09120    0.77360    0.53950    1.000
    H9       H        0.10610    0.97620    0.53330    1.000
    H10      H        0.15520    0.82500    0.53090    1.000
    Ba3      Ba       0.45447    0.70736    0.76622    1.000
    Ba4      Ba       0.95130    0.47090    0.18907    1.000
    F9       F        0.64096    0.96860    0.98685    1.000
    F10      F        0.76161    0.98570    0.11002    1.000
    F11      F        0.93413    0.92920    0.05684    1.000
    F12      F        0.81415    0.92520    0.93302    1.000
    F13      F        0.72917    0.61780    0.84339    1.000
    F14      F        0.85578    0.65050    0.85106    1.000
    F15      F        0.70230    0.85780    0.63619    1.000
    F16      F        0.57744    0.83980    0.63136    1.000
    O11      O        0.59850    0.84310    0.86661    1.000
    O12      O        0.65590    0.06240    0.85008    1.000
    O13      O        0.92950    0.11210    0.18597    1.000
    O14      O        0.96440    0.83380    0.18256    1.000
    O15      O        0.53018    0.84320    0.71318    1.000
    O16      O        0.56520    0.56610    0.75110    1.000
    O17      O        0.86200    0.89460    0.71840    1.000
    O18      O        0.90860    0.64690    0.77860    1.000
    C21      C        0.65220    0.95080    0.88360    1.000
    C22      C        0.72260    0.94720    0.95460    1.000
    C23      C        0.71310    0.95900    0.00270    1.000
    C24      C        0.77580    0.96720    0.06650    1.000
    C25      C        0.85180    0.95710    0.08750    1.000
    C26      C        0.86130    0.93920    0.04000    1.000
    C27      C        0.79900    0.93820    0.97580    1.000
    C28      C        0.92080    0.96890    0.15740    1.000
    C29      C        0.57520    0.71180    0.73360    1.000
    C30      C        0.64810    0.72820    0.73680    1.000
    C31      C        0.72100    0.67940    0.79170    1.000
    C32      C        0.78730    0.69360    0.79470    1.000
    C33      C        0.78550    0.75450    0.74380    1.000
    C34      C        0.71220    0.80200    0.68920    1.000
    C35      C        0.64570    0.79160    0.68650    1.000
    C36      C        0.85870    0.76700    0.74650    1.000
    O19      O        0.97590    0.45200    0.09570    1.000
    C37      C        0.93530    0.50640    0.02920    1.000
    H11      H        0.96470    0.59450    0.02430    1.000
    H12      H        0.88300    0.55150    0.01010    1.000
    C38      C        0.93400    0.32230    0.00270    1.000
    H13      H        0.90820    0.33190    0.95740    1.000
    H14      H        0.90610    0.23840    0.01000    1.000
    H15      H        0.98670    0.28090    0.02400    1.000
    O20      O        0.93380    0.46900    0.08150    1.000
    C39      C        0.95780    0.34400    0.05510    1.000
    H16      H        0.96000    0.22310    0.07000    1.000
    H17      H        0.00920    0.37560    0.06760    1.000
    C40      C        0.89530    0.35600    0.98070    1.000
    H18      H        0.90880    0.27360    0.96050    1.000
    H19      H        0.89390    0.47620    0.96670    1.000
    H20      H        0.84480    0.32500    0.96910    1.000
    Ba5      Ba       0.45447    0.79264    0.26622    1.000
    Ba6      Ba       0.95130    0.02910    0.68907    1.000
    F17      F        0.64096    0.53140    0.48685    1.000
    F18      F        0.76161    0.51430    0.61002    1.000
    F19      F        0.93413    0.57080    0.55684    1.000
    F20      F        0.81415    0.57480    0.43302    1.000
    F21      F        0.72917    0.88220    0.34339    1.000
    F22      F        0.85578    0.84950    0.35106    1.000
    F23      F        0.70230    0.64220    0.13619    1.000
    F24      F        0.57744    0.66020    0.13136    1.000
    O21      O        0.59850    0.65690    0.36661    1.000
    O22      O        0.65590    0.43760    0.35008    1.000
    O23      O        0.92950    0.38790    0.68597    1.000
    O24      O        0.96440    0.66620    0.68256    1.000
    O25      O        0.53018    0.65680    0.21318    1.000
    O26      O        0.56520    0.93390    0.25110    1.000
    O27      O        0.86200    0.60540    0.21840    1.000
    O28      O        0.90860    0.85310    0.27860    1.000
    C41      C        0.65220    0.54920    0.38360    1.000
    C42      C        0.72260    0.55280    0.45460    1.000
    C43      C        0.71310    0.54100    0.50270    1.000
    C44      C        0.77580    0.53280    0.56650    1.000
    C45      C        0.85180    0.54290    0.58750    1.000
    C46      C        0.86130    0.56080    0.54000    1.000
    C47      C        0.79900    0.56180    0.47580    1.000
    C48      C        0.92080    0.53110    0.65740    1.000
    C49      C        0.57520    0.78820    0.23360    1.000
    C50      C        0.64810    0.77180    0.23680    1.000
    C51      C        0.72100    0.82060    0.29170    1.000
    C52      C        0.78730    0.80640    0.29470    1.000
    C53      C        0.78550    0.74550    0.24380    1.000
    C54      C        0.71220    0.69800    0.18920    1.000
    C55      C        0.64570    0.70840    0.18650    1.000
    C56      C        0.85870    0.73300    0.24650    1.000
    O29      O        0.97590    0.04800    0.59570    1.000
    C57      C        0.93530    0.99360    0.52920    1.000
    H21      H        0.96470    0.90550    0.52430    1.000
    H22      H        0.88300    0.94850    0.51010    1.000
    C58      C        0.93400    0.17770    0.50270    1.000
    H23      H        0.90820    0.16810    0.45740    1.000
    H24      H        0.90610    0.26160    0.51000    1.000
    H25      H        0.98670    0.21910    0.52400    1.000
    O30      O        0.93380    0.03100    0.58150    1.000
    C59      C        0.95780    0.15600    0.55510    1.000
    H26      H        0.96000    0.27690    0.57000    1.000
    H27      H        0.00920    0.12440    0.56760    1.000
    C60      C        0.89530    0.14400    0.48070    1.000
    H28      H        0.90880    0.22640    0.46050    1.000
    H29      H        0.89390    0.02380    0.46670    1.000
    H30      H        0.84480    0.17500    0.46910    1.000
    Ba7      Ba       0.54553    0.29264    0.23378    1.000
    Ba8      Ba       0.04870    0.52910    0.81093    1.000
    F25      F        0.35904    0.03140    0.01315    1.000
    F26      F        0.23839    0.01430    0.88998    1.000
    F27      F        0.06587    0.07080    0.94316    1.000
    F28      F        0.18585    0.07480    0.06698    1.000
    F29      F        0.27083    0.38220    0.15661    1.000
    F30      F        0.14422    0.34950    0.14894    1.000
    F31      F        0.29770    0.14220    0.36381    1.000
    F32      F        0.42256    0.16020    0.36864    1.000
    O31      O        0.40150    0.15690    0.13339    1.000
    O32      O        0.34410    0.93760    0.14992    1.000
    O33      O        0.07050    0.88790    0.81403    1.000
    O34      O        0.03560    0.16620    0.81744    1.000
    O35      O        0.46982    0.15680    0.28682    1.000
    O36      O        0.43480    0.43390    0.24890    1.000
    O37      O        0.13800    0.10540    0.28160    1.000
    O38      O        0.09140    0.35310    0.22140    1.000
    C61      C        0.34780    0.04920    0.11640    1.000
    C62      C        0.27740    0.05280    0.04540    1.000
    C63      C        0.28690    0.04100    0.99730    1.000
    C64      C        0.22420    0.03280    0.93350    1.000
    C65      C        0.14820    0.04290    0.91250    1.000
    C66      C        0.13870    0.06080    0.96000    1.000
    C67      C        0.20100    0.06180    0.02420    1.000
    C68      C        0.07920    0.03110    0.84260    1.000
    C69      C        0.42480    0.28820    0.26640    1.000
    C70      C        0.35190    0.27180    0.26320    1.000
    C71      C        0.27900    0.32060    0.20830    1.000
    C72      C        0.21270    0.30640    0.20530    1.000
    C73      C        0.21450    0.24550    0.25620    1.000
    C74      C        0.28780    0.19800    0.31080    1.000
    C75      C        0.35430    0.20840    0.31350    1.000
    C76      C        0.14130    0.23300    0.25350    1.000
    O39      O        0.02410    0.54800    0.90430    1.000
    C77      C        0.06470    0.49360    0.97080    1.000
    H31      H        0.03530    0.40550    0.97570    1.000
    H32      H        0.11700    0.44850    0.98990    1.000
    C78      C        0.06600    0.67770    0.99730    1.000
    H33      H        0.09180    0.66810    0.04260    1.000
    H34      H        0.09390    0.76160    0.99000    1.000
    H35      H        0.01330    0.71910    0.97600    1.000
    O40      O        0.06620    0.53100    0.91850    1.000
    C79      C        0.04220    0.65600    0.94490    1.000
    H36      H        0.04000    0.77690    0.93000    1.000
    H37      H        0.99080    0.62440    0.93240    1.000
    C80      C        0.10470    0.64400    0.01930    1.000
    H38      H        0.09120    0.72640    0.03950    1.000
    H39      H        0.10610    0.52380    0.03330    1.000
    H40      H        0.15520    0.67500    0.03090    1.000
