# CIF file generated by openbabel 3.1.0, see https://openbabel.org
data_I
_chemical_name_common 'image0'
_cell_length_a 14.1239
_cell_length_b 18.3243
_cell_length_c 20.6657
_cell_angle_alpha 90
_cell_angle_beta 99.1218
_cell_angle_gamma 90
_space_group_name_H-M_alt 'P 1'
_space_group_name_Hall 'P 1'
loop_
    _symmetry_equiv_pos_as_xyz
    x,y,z
loop_
    _atom_site_label
    _atom_site_type_symbol
    _atom_site_fract_x
    _atom_site_fract_y
    _atom_site_fract_z
    _atom_site_occupancy
    Co1      Co       0.72019    0.24478    0.18762    1.000
    O1       O        0.64482    0.15394    0.15693    1.000
    O2       O        0.49567    0.17310    0.17739    1.000
    O3       O        0.63255    0.31251    0.12935    1.000
    O4       O        0.50864    0.33448    0.18260    1.000
    O5       O        0.78847    0.19329    0.27725    1.000
    O6       O        0.65484    0.25612    0.27448    1.000
    C1       C        0.55600    0.14399    0.14751    1.000
    C2       C        0.51880    0.09102    0.09291    1.000
    C3       C        0.42060    0.08816    0.06775    1.000
    H1       H        0.37690    0.11720    0.08710    1.000
    C4       C        0.38710    0.04427    0.01599    1.000
    H2       H        0.32050    0.04380    0.99910    1.000
    C5       C        0.58170    0.04842    0.06618    1.000
    H3       H        0.64810    0.05060    0.08340    1.000
    C6       C        0.54930    0.00089    0.01297    1.000
    C7       C        0.55850    0.34703    0.13939    1.000
    C8       C        0.52770    0.40950    0.09323    1.000
    C9       C        0.45720    0.45909    0.10799    1.000
    H4       H        0.43120    0.45340    0.14740    1.000
    C10      C        0.42620    0.51492    0.06641    1.000
    H5       H        0.37890    0.54770    0.07710    1.000
    C11      C        0.56600    0.41820    0.03688    1.000
    H6       H        0.61370    0.38510    0.02730    1.000
    C12      C        0.53580    0.47537    0.99284    1.000
    C13      C        0.72590    0.22204    0.30657    1.000
    C14      C        0.74050    0.22078    0.37983    1.000
    C15      C        0.80300    0.16902    0.41418    1.000
    H7       H        0.83260    0.13350    0.39060    1.000
    C16      C        0.82130    0.16943    0.48117    1.000
    H8       H        0.86180    0.13310    0.50370    1.000
    C17      C        0.69860    0.27235    0.41336    1.000
    H9       H        0.65480    0.30600    0.38990    1.000
    C18      C        0.71910    0.27681    0.48287    1.000
    Co2      Co       0.22019    0.74478    0.18762    1.000
    O7       O        0.14482    0.65394    0.15693    1.000
    O8       O        0.99567    0.67310    0.17739    1.000
    O9       O        0.13255    0.81251    0.12935    1.000
    O10      O        0.00864    0.83448    0.18260    1.000
    O11      O        0.28847    0.69329    0.27725    1.000
    O12      O        0.15484    0.75612    0.27448    1.000
    C19      C        0.05600    0.64399    0.14751    1.000
    C20      C        0.01880    0.59102    0.09291    1.000
    C21      C        0.92060    0.58816    0.06775    1.000
    H10      H        0.87690    0.61720    0.08710    1.000
    C22      C        0.88710    0.54427    0.01599    1.000
    H11      H        0.82050    0.54380    0.99910    1.000
    C23      C        0.08170    0.54842    0.06618    1.000
    H12      H        0.14810    0.55060    0.08340    1.000
    C24      C        0.04930    0.50089    0.01297    1.000
    C25      C        0.05850    0.84703    0.13939    1.000
    C26      C        0.02770    0.90950    0.09323    1.000
    C27      C        0.95720    0.95909    0.10799    1.000
    H13      H        0.93120    0.95340    0.14740    1.000
    C28      C        0.92620    0.01492    0.06641    1.000
    H14      H        0.87890    0.04770    0.07710    1.000
    C29      C        0.06600    0.91820    0.03688    1.000
    H15      H        0.11370    0.88510    0.02730    1.000
    C30      C        0.03580    0.97537    0.99284    1.000
    C31      C        0.22590    0.72204    0.30657    1.000
    C32      C        0.24050    0.72078    0.37983    1.000
    C33      C        0.30300    0.66902    0.41418    1.000
    H16      H        0.33260    0.63350    0.39060    1.000
    C34      C        0.32130    0.66943    0.48117    1.000
    H17      H        0.36180    0.63310    0.50370    1.000
    C35      C        0.19860    0.77235    0.41336    1.000
    H18      H        0.15480    0.80600    0.38990    1.000
    C36      C        0.21910    0.77681    0.48287    1.000
    Co3      Co       0.27981    0.24478    0.31238    1.000
    O13      O        0.35518    0.15394    0.34307    1.000
    O14      O        0.50433    0.17310    0.32261    1.000
    O15      O        0.36745    0.31251    0.37065    1.000
    O16      O        0.49136    0.33448    0.31740    1.000
    O17      O        0.21153    0.19329    0.22275    1.000
    O18      O        0.34516    0.25612    0.22552    1.000
    C37      C        0.44400    0.14399    0.35249    1.000
    C38      C        0.48120    0.09102    0.40709    1.000
    C39      C        0.57940    0.08816    0.43225    1.000
    H19      H        0.62310    0.11720    0.41290    1.000
    C40      C        0.61290    0.04427    0.48401    1.000
    H20      H        0.67950    0.04380    0.50090    1.000
    C41      C        0.41830    0.04842    0.43382    1.000
    H21      H        0.35190    0.05060    0.41660    1.000
    C42      C        0.45070    0.00089    0.48703    1.000
    C43      C        0.44150    0.34703    0.36061    1.000
    C44      C        0.47230    0.40950    0.40677    1.000
    C45      C        0.54280    0.45909    0.39201    1.000
    H22      H        0.56880    0.45340    0.35260    1.000
    C46      C        0.57380    0.51492    0.43359    1.000
    H23      H        0.62110    0.54770    0.42290    1.000
    C47      C        0.43400    0.41820    0.46312    1.000
    H24      H        0.38630    0.38510    0.47270    1.000
    C48      C        0.46420    0.47537    0.50716    1.000
    C49      C        0.27410    0.22204    0.19343    1.000
    C50      C        0.25950    0.22078    0.12017    1.000
    C51      C        0.19700    0.16902    0.08582    1.000
    H25      H        0.16740    0.13350    0.10940    1.000
    C52      C        0.17870    0.16943    0.01883    1.000
    H26      H        0.13820    0.13310    0.99630    1.000
    C53      C        0.30140    0.27235    0.08664    1.000
    H27      H        0.34520    0.30600    0.11010    1.000
    C54      C        0.28090    0.27681    0.01713    1.000
    Co4      Co       0.77981    0.74478    0.31238    1.000
    O19      O        0.85518    0.65394    0.34307    1.000
    O20      O        0.00433    0.67310    0.32261    1.000
    O21      O        0.86745    0.81251    0.37065    1.000
    O22      O        0.99136    0.83448    0.31740    1.000
    O23      O        0.71153    0.69329    0.22275    1.000
    O24      O        0.84516    0.75612    0.22552    1.000
    C55      C        0.94400    0.64399    0.35249    1.000
    C56      C        0.98120    0.59102    0.40709    1.000
    C57      C        0.07940    0.58816    0.43225    1.000
    H28      H        0.12310    0.61720    0.41290    1.000
    C58      C        0.11290    0.54427    0.48401    1.000
    H29      H        0.17950    0.54380    0.50090    1.000
    C59      C        0.91830    0.54842    0.43382    1.000
    H30      H        0.85190    0.55060    0.41660    1.000
    C60      C        0.95070    0.50089    0.48703    1.000
    C61      C        0.94150    0.84703    0.36061    1.000
    C62      C        0.97230    0.90950    0.40677    1.000
    C63      C        0.04280    0.95909    0.39201    1.000
    H31      H        0.06880    0.95340    0.35260    1.000
    C64      C        0.07380    0.01492    0.43359    1.000
    H32      H        0.12110    0.04770    0.42290    1.000
    C65      C        0.93400    0.91820    0.46312    1.000
    H33      H        0.88630    0.88510    0.47270    1.000
    C66      C        0.96420    0.97537    0.50716    1.000
    C67      C        0.77410    0.72204    0.19343    1.000
    C68      C        0.75950    0.72078    0.12017    1.000
    C69      C        0.69700    0.66902    0.08582    1.000
    H34      H        0.66740    0.63350    0.10940    1.000
    C70      C        0.67870    0.66943    0.01883    1.000
    H35      H        0.63820    0.63310    0.99630    1.000
    C71      C        0.80140    0.77235    0.08664    1.000
    H36      H        0.84520    0.80600    0.11010    1.000
    C72      C        0.78090    0.77681    0.01713    1.000
    Co5      Co       0.27981    0.75522    0.81238    1.000
    O25      O        0.35518    0.84606    0.84307    1.000
    O26      O        0.50433    0.82690    0.82261    1.000
    O27      O        0.36745    0.68749    0.87065    1.000
    O28      O        0.49136    0.66552    0.81740    1.000
    O29      O        0.21153    0.80671    0.72275    1.000
    O30      O        0.34516    0.74388    0.72552    1.000
    C73      C        0.44400    0.85601    0.85249    1.000
    C74      C        0.48120    0.90898    0.90709    1.000
    C75      C        0.57940    0.91184    0.93225    1.000
    H37      H        0.62310    0.88280    0.91290    1.000
    C76      C        0.61290    0.95573    0.98401    1.000
    H38      H        0.67950    0.95620    0.00090    1.000
    C77      C        0.41830    0.95158    0.93382    1.000
    H39      H        0.35190    0.94940    0.91660    1.000
    C78      C        0.45070    0.99911    0.98703    1.000
    C79      C        0.44150    0.65297    0.86061    1.000
    C80      C        0.47230    0.59050    0.90677    1.000
    C81      C        0.54280    0.54091    0.89201    1.000
    H40      H        0.56880    0.54660    0.85260    1.000
    C82      C        0.57380    0.48508    0.93359    1.000
    H41      H        0.62110    0.45230    0.92290    1.000
    C83      C        0.43400    0.58180    0.96312    1.000
    H42      H        0.38630    0.61490    0.97270    1.000
    C84      C        0.46420    0.52463    0.00716    1.000
    C85      C        0.27410    0.77796    0.69343    1.000
    C86      C        0.25950    0.77922    0.62017    1.000
    C87      C        0.19700    0.83098    0.58582    1.000
    H43      H        0.16740    0.86650    0.60940    1.000
    C88      C        0.17870    0.83057    0.51883    1.000
    H44      H        0.13820    0.86690    0.49630    1.000
    C89      C        0.30140    0.72765    0.58664    1.000
    H45      H        0.34520    0.69400    0.61010    1.000
    C90      C        0.28090    0.72319    0.51713    1.000
    Co6      Co       0.77981    0.25522    0.81238    1.000
    O31      O        0.85518    0.34606    0.84307    1.000
    O32      O        0.00433    0.32690    0.82261    1.000
    O33      O        0.86745    0.18749    0.87065    1.000
    O34      O        0.99136    0.16552    0.81740    1.000
    O35      O        0.71153    0.30671    0.72275    1.000
    O36      O        0.84516    0.24388    0.72552    1.000
    C91      C        0.94400    0.35601    0.85249    1.000
    C92      C        0.98120    0.40898    0.90709    1.000
    C93      C        0.07940    0.41184    0.93225    1.000
    H46      H        0.12310    0.38280    0.91290    1.000
    C94      C        0.11290    0.45573    0.98401    1.000
    H47      H        0.17950    0.45620    0.00090    1.000
    C95      C        0.91830    0.45158    0.93382    1.000
    H48      H        0.85190    0.44940    0.91660    1.000
    C96      C        0.95070    0.49911    0.98703    1.000
    C97      C        0.94150    0.15297    0.86061    1.000
    C98      C        0.97230    0.09050    0.90677    1.000
    C99      C        0.04280    0.04091    0.89201    1.000
    H49      H        0.06880    0.04660    0.85260    1.000
    C100     C        0.07380    0.98508    0.93359    1.000
    H50      H        0.12110    0.95230    0.92290    1.000
    C101     C        0.93400    0.08180    0.96312    1.000
    H51      H        0.88630    0.11490    0.97270    1.000
    C102     C        0.96420    0.02463    0.00716    1.000
    C103     C        0.77410    0.27796    0.69343    1.000
    C104     C        0.75950    0.27922    0.62017    1.000
    C105     C        0.69700    0.33098    0.58582    1.000
    H52      H        0.66740    0.36650    0.60940    1.000
    C106     C        0.67870    0.33057    0.51883    1.000
    H53      H        0.63820    0.36690    0.49630    1.000
    C107     C        0.80140    0.22765    0.58664    1.000
    H54      H        0.84520    0.19400    0.61010    1.000
    C108     C        0.78090    0.22319    0.51713    1.000
    Co7      Co       0.72019    0.75522    0.68762    1.000
    O37      O        0.64482    0.84606    0.65693    1.000
    O38      O        0.49567    0.82690    0.67739    1.000
    O39      O        0.63255    0.68749    0.62935    1.000
    O40      O        0.50864    0.66552    0.68260    1.000
    O41      O        0.78847    0.80671    0.77725    1.000
    O42      O        0.65484    0.74388    0.77448    1.000
    C109     C        0.55600    0.85601    0.64751    1.000
    C110     C        0.51880    0.90898    0.59291    1.000
    C111     C        0.42060    0.91184    0.56775    1.000
    H55      H        0.37690    0.88280    0.58710    1.000
    C112     C        0.38710    0.95573    0.51599    1.000
    H56      H        0.32050    0.95620    0.49910    1.000
    C113     C        0.58170    0.95158    0.56618    1.000
    H57      H        0.64810    0.94940    0.58340    1.000
    C114     C        0.54930    0.99911    0.51297    1.000
    C115     C        0.55850    0.65297    0.63939    1.000
    C116     C        0.52770    0.59050    0.59323    1.000
    C117     C        0.45720    0.54091    0.60799    1.000
    H58      H        0.43120    0.54660    0.64740    1.000
    C118     C        0.42620    0.48508    0.56641    1.000
    H59      H        0.37890    0.45230    0.57710    1.000
    C119     C        0.56600    0.58180    0.53688    1.000
    H60      H        0.61370    0.61490    0.52730    1.000
    C120     C        0.53580    0.52463    0.49284    1.000
    C121     C        0.72590    0.77796    0.80657    1.000
    C122     C        0.74050    0.77922    0.87983    1.000
    C123     C        0.80300    0.83098    0.91418    1.000
    H61      H        0.83260    0.86650    0.89060    1.000
    C124     C        0.82130    0.83057    0.98117    1.000
    H62      H        0.86180    0.86690    0.00370    1.000
    C125     C        0.69860    0.72765    0.91336    1.000
    H63      H        0.65480    0.69400    0.88990    1.000
    C126     C        0.71910    0.72319    0.98287    1.000
    Co8      Co       0.22019    0.25522    0.68762    1.000
    O43      O        0.14482    0.34606    0.65693    1.000
    O44      O        0.99567    0.32690    0.67739    1.000
    O45      O        0.13255    0.18749    0.62935    1.000
    O46      O        0.00864    0.16552    0.68260    1.000
    O47      O        0.28847    0.30671    0.77725    1.000
    O48      O        0.15484    0.24388    0.77448    1.000
    C127     C        0.05600    0.35601    0.64751    1.000
    C128     C        0.01880    0.40898    0.59291    1.000
    C129     C        0.92060    0.41184    0.56775    1.000
    H64      H        0.87690    0.38280    0.58710    1.000
    C130     C        0.88710    0.45573    0.51599    1.000
    H65      H        0.82050    0.45620    0.49910    1.000
    C131     C        0.08170    0.45158    0.56618    1.000
    H66      H        0.14810    0.44940    0.58340    1.000
    C132     C        0.04930    0.49911    0.51297    1.000
    C133     C        0.05850    0.15297    0.63939    1.000
    C134     C        0.02770    0.09050    0.59323    1.000
    C135     C        0.95720    0.04091    0.60799    1.000
    H67      H        0.93120    0.04660    0.64740    1.000
    C136     C        0.92620    0.98508    0.56641    1.000
    H68      H        0.87890    0.95230    0.57710    1.000
    C137     C        0.06600    0.08180    0.53688    1.000
    H69      H        0.11370    0.11490    0.52730    1.000
    C138     C        0.03580    0.02463    0.49284    1.000
    C139     C        0.22590    0.27796    0.80657    1.000
    C140     C        0.24050    0.27922    0.87983    1.000
    C141     C        0.30300    0.33098    0.91418    1.000
    H70      H        0.33260    0.36650    0.89060    1.000
    C142     C        0.32130    0.33057    0.98117    1.000
    H71      H        0.36180    0.36690    0.00370    1.000
    C143     C        0.19860    0.22765    0.91336    1.000
    H72      H        0.15480    0.19400    0.88990    1.000
    C144     C        0.21910    0.22319    0.98287    1.000
    Co9      Co       0.50000    0.25167    0.25000    1.000
    Co10     Co       0.00000    0.75167    0.25000    1.000
    Co11     Co       0.50000    0.74833    0.75000    1.000
    Co12     Co       0.00000    0.24833    0.75000    1.000
