# CIF file generated by openbabel 3.1.0, see https://openbabel.org
data_I
_chemical_name_common 'SUNJER_clean'
_cell_length_a 9.7863
_cell_length_b 10.2967
_cell_length_c 11.0263
_cell_angle_alpha 76.898
_cell_angle_beta 76.24
_cell_angle_gamma 65.487
_space_group_name_H-M_alt 'P 1'
_space_group_name_Hall 'P 1'
loop_
    _symmetry_equiv_pos_as_xyz
    x,y,z
loop_
    _atom_site_label
    _atom_site_type_symbol
    _atom_site_fract_x
    _atom_site_fract_y
    _atom_site_fract_z
    _atom_site_occupancy
    Yb1      Yb       0.94429    0.22814    0.32414    1.000
    Yb2      Yb       0.05571    0.77186    0.67586    1.000
    H1       H        0.43560    0.41680    0.21100    1.000
    H2       H        0.74400    0.49740    0.92270    1.000
    H3       H        0.40150    0.88280    0.68180    1.000
    H4       H        0.34860    0.14150    0.34870    1.000
    H5       H        0.30790    0.92210    0.00530    1.000
    H6       H        0.45270    0.18800    0.10700    1.000
    H7       H        0.56440    0.58320    0.78900    1.000
    H8       H        0.25600    0.50260    0.07730    1.000
    H9       H        0.59850    0.11720    0.31820    1.000
    H10      H        0.65140    0.85850    0.65130    1.000
    H11      H        0.69210    0.07790    0.99470    1.000
    H12      H        0.54730    0.81200    0.89300    1.000
    C1       C        0.60870    0.44840    0.08060    1.000
    C2       C        0.46150    0.45010    0.12650    1.000
    C3       C        0.64660    0.49830    0.95390    1.000
    C4       C        0.72630    0.38780    0.16690    1.000
    C5       C        0.35010    0.01300    0.51760    1.000
    C6       C        0.44160    0.92940    0.60860    1.000
    C7       C        0.40960    0.08450    0.40910    1.000
    C8       C        0.18950    0.02190    0.53300    1.000
    C9       C        0.35540    0.06600    0.06780    1.000
    C10      C        0.38500    0.95340    0.00320    1.000
    C11      C        0.47150    0.11270    0.06420    1.000
    C12      C        0.20300    0.13240    0.14820    1.000
    C13      C        0.39130    0.55160    0.91940    1.000
    C14      C        0.53850    0.54990    0.87350    1.000
    C15      C        0.35340    0.50170    0.04610    1.000
    C16      C        0.27370    0.61220    0.83310    1.000
    C17      C        0.64990    0.98700    0.48240    1.000
    C18      C        0.55840    0.07060    0.39140    1.000
    C19      C        0.59040    0.91550    0.59090    1.000
    C20      C        0.81050    0.97810    0.46700    1.000
    C21      C        0.64460    0.93400    0.93220    1.000
    C22      C        0.61500    0.04660    0.99680    1.000
    C23      C        0.52850    0.88730    0.93580    1.000
    C24      C        0.79700    0.86760    0.85180    1.000
    O1       O        0.86150    0.37420    0.12390    1.000
    O2       O        0.68570    0.35020    0.28190    1.000
    O3       O        0.11470    0.09950    0.44660    1.000
    O4       O        0.14080    0.95070    0.62940    1.000
    O5       O        0.16900    0.25000    0.18620    1.000
    O6       O        0.11330    0.06550    0.18030    1.000
    O7       O        0.13850    0.62580    0.87610    1.000
    O8       O        0.31430    0.64980    0.71810    1.000
    O9       O        0.88530    0.90050    0.55340    1.000
    O10      O        0.85920    0.04930    0.37060    1.000
    O11      O        0.83100    0.75000    0.81380    1.000
    O12      O        0.88670    0.93450    0.81970    1.000
