# CIF file generated by openbabel 3.1.0, see https://openbabel.org
data_I
_chemical_name_common 'image0'
_cell_length_a 8.523
_cell_length_b 28.628
_cell_length_c 9.306
_cell_angle_alpha 90
_cell_angle_beta 96.497
_cell_angle_gamma 90
_space_group_name_H-M_alt 'P 1'
_space_group_name_Hall 'P 1'
loop_
    _symmetry_equiv_pos_as_xyz
    x,y,z
loop_
    _atom_site_label
    _atom_site_type_symbol
    _atom_site_fract_x
    _atom_site_fract_y
    _atom_site_fract_z
    _atom_site_occupancy
    C1       C        0.23310    0.24424    0.60210    1.000
    C2       C        0.38790    0.26479    0.67780    1.000
    C3       C        0.03340    0.02549    0.50510    1.000
    C4       C        0.03310    0.02505    0.00010    1.000
    O1       O        0.17400    0.21034    0.66160    1.000
    O2       O        0.43500    0.24997    0.80040    1.000
    O3       O        0.17330    0.26405    0.48790    1.000
    O4       O        0.45400    0.29508    0.60810    1.000
    O5       O        0.12120    0.03761    0.41300    1.000
    O6       O        0.14540    0.03445    0.09360    1.000
    O7       O        0.98830    0.05059    0.60450    1.000
    O8       O        0.96780    0.05261    0.90730    1.000
    O9       O        0.44870    0.03309    0.64600    1.000
    O10      O        0.55510    0.95960    0.71480    1.000
    O11      O        0.31630    0.96229    0.54750    1.000
    O12      O        0.30280    0.98262    0.79310    1.000
    O13      O        0.59390    0.14764    0.89560    1.000
    O14      O        0.49870    0.16504    0.65400    1.000
    O15      O        0.76500    0.18906    0.74810    1.000
    O16      O        0.71050    0.10822    0.70470    1.000
    S1       S        0.40176    0.98418    0.67652    1.000
    S2       S        0.64471    0.15272    0.74903    1.000
    Nd1      Nd       0.74752    0.02480    0.71568    1.000
    Nd2      Nd       0.31929    0.17387    0.87168    1.000
    C5       C        0.76690    0.74424    0.89790    1.000
    C6       C        0.61210    0.76479    0.82220    1.000
    C7       C        0.96660    0.52549    0.99490    1.000
    C8       C        0.96690    0.52505    0.49990    1.000
    O17      O        0.82600    0.71034    0.83840    1.000
    O18      O        0.56500    0.74997    0.69960    1.000
    O19      O        0.82670    0.76405    0.01210    1.000
    O20      O        0.54600    0.79508    0.89190    1.000
    O21      O        0.87880    0.53761    0.08700    1.000
    O22      O        0.85460    0.53445    0.40640    1.000
    O23      O        0.01170    0.55059    0.89550    1.000
    O24      O        0.03220    0.55261    0.59270    1.000
    O25      O        0.55130    0.53309    0.85400    1.000
    O26      O        0.44490    0.45960    0.78520    1.000
    O27      O        0.68370    0.46229    0.95250    1.000
    O28      O        0.69720    0.48262    0.70690    1.000
    O29      O        0.40610    0.64764    0.60440    1.000
    O30      O        0.50130    0.66504    0.84600    1.000
    O31      O        0.23500    0.68906    0.75190    1.000
    O32      O        0.28950    0.60822    0.79530    1.000
    S3       S        0.59824    0.48418    0.82348    1.000
    S4       S        0.35529    0.65272    0.75097    1.000
    Nd3      Nd       0.25248    0.52480    0.78432    1.000
    Nd4      Nd       0.68071    0.67387    0.62832    1.000
    C9       C        0.76690    0.75576    0.39790    1.000
    C10      C        0.61210    0.73521    0.32220    1.000
    C11      C        0.96660    0.97451    0.49490    1.000
    C12      C        0.96690    0.97495    0.99990    1.000
    O33      O        0.82600    0.78966    0.33840    1.000
    O34      O        0.56500    0.75003    0.19960    1.000
    O35      O        0.82670    0.73595    0.51210    1.000
    O36      O        0.54600    0.70492    0.39190    1.000
    O37      O        0.87880    0.96239    0.58700    1.000
    O38      O        0.85460    0.96555    0.90640    1.000
    O39      O        0.01170    0.94941    0.39550    1.000
    O40      O        0.03220    0.94739    0.09270    1.000
    O41      O        0.55130    0.96691    0.35400    1.000
    O42      O        0.44490    0.04040    0.28520    1.000
    O43      O        0.68370    0.03771    0.45250    1.000
    O44      O        0.69720    0.01738    0.20690    1.000
    O45      O        0.40610    0.85236    0.10440    1.000
    O46      O        0.50130    0.83496    0.34600    1.000
    O47      O        0.23500    0.81094    0.25190    1.000
    O48      O        0.28950    0.89178    0.29530    1.000
    S5       S        0.59824    0.01582    0.32348    1.000
    S6       S        0.35529    0.84728    0.25097    1.000
    Nd5      Nd       0.25248    0.97520    0.28432    1.000
    Nd6      Nd       0.68071    0.82613    0.12832    1.000
    C13      C        0.23310    0.25576    0.10210    1.000
    C14      C        0.38790    0.23521    0.17780    1.000
    C15      C        0.03340    0.47451    0.00510    1.000
    C16      C        0.03310    0.47495    0.50010    1.000
    O49      O        0.17400    0.28966    0.16160    1.000
    O50      O        0.43500    0.25003    0.30040    1.000
    O51      O        0.17330    0.23595    0.98790    1.000
    O52      O        0.45400    0.20492    0.10810    1.000
    O53      O        0.12120    0.46239    0.91300    1.000
    O54      O        0.14540    0.46555    0.59360    1.000
    O55      O        0.98830    0.44941    0.10450    1.000
    O56      O        0.96780    0.44739    0.40730    1.000
    O57      O        0.44870    0.46691    0.14600    1.000
    O58      O        0.55510    0.54040    0.21480    1.000
    O59      O        0.31630    0.53771    0.04750    1.000
    O60      O        0.30280    0.51738    0.29310    1.000
    O61      O        0.59390    0.35236    0.39560    1.000
    O62      O        0.49870    0.33496    0.15400    1.000
    O63      O        0.76500    0.31094    0.24810    1.000
    O64      O        0.71050    0.39178    0.20470    1.000
    S7       S        0.40176    0.51582    0.17652    1.000
    S8       S        0.64471    0.34728    0.24903    1.000
    Nd7      Nd       0.74752    0.47520    0.21568    1.000
    Nd8      Nd       0.31929    0.32613    0.37168    1.000
