# CIF file generated by openbabel 3.1.0, see https://openbabel.org
data_I
_chemical_name_common 'CAYDIR_clean'
_cell_length_a 7.9025
_cell_length_b 12.355
_cell_length_c 12.355
_cell_angle_alpha 90
_cell_angle_beta 90
_cell_angle_gamma 90
_space_group_name_H-M_alt 'P 1'
_space_group_name_Hall 'P 1'
loop_
    _symmetry_equiv_pos_as_xyz
    x,y,z
loop_
    _atom_site_label
    _atom_site_type_symbol
    _atom_site_fract_x
    _atom_site_fract_y
    _atom_site_fract_z
    _atom_site_occupancy
    Cu1      Cu       0.96648    0.32318    0.01525    1.000
    Cu2      Cu       0.46648    0.67682    0.98475    1.000
    Cu3      Cu       0.21648    0.98475    0.32318    1.000
    Cu4      Cu       0.71648    0.01525    0.67682    1.000
    H1       H        0.81810    0.09810    0.10670    1.000
    H2       H        0.85280    0.05540    0.22400    1.000
    H3       H        0.79840    0.22810    0.29400    1.000
    H4       H        0.64040    0.18460    0.23020    1.000
    H5       H        0.53410    0.36530    0.15840    1.000
    H6       H        0.64500    0.39120    0.26080    1.000
    H7       H        0.81070    0.50950    0.15880    1.000
    H8       H        0.62110    0.54650    0.15700    1.000
    H9       H        0.31810    0.90190    0.89330    1.000
    H10      H        0.35280    0.94460    0.77600    1.000
    H11      H        0.29840    0.77190    0.70600    1.000
    H12      H        0.14040    0.81540    0.76980    1.000
    H13      H        0.03410    0.63470    0.84160    1.000
    H14      H        0.14500    0.60880    0.73920    1.000
    H15      H        0.31070    0.49050    0.84120    1.000
    H16      H        0.12110    0.45350    0.84300    1.000
    H17      H        0.06810    0.89330    0.09810    1.000
    H18      H        0.10280    0.77600    0.05540    1.000
    H19      H        0.04840    0.70600    0.22810    1.000
    H20      H        0.89040    0.76980    0.18460    1.000
    H21      H        0.78410    0.84160    0.36530    1.000
    H22      H        0.89500    0.73920    0.39120    1.000
    H23      H        0.06070    0.84120    0.50950    1.000
    H24      H        0.87110    0.84300    0.54650    1.000
    H25      H        0.56810    0.10670    0.90190    1.000
    H26      H        0.60280    0.22400    0.94460    1.000
    H27      H        0.54840    0.29400    0.77190    1.000
    H28      H        0.39040    0.23020    0.81540    1.000
    H29      H        0.28410    0.15840    0.63470    1.000
    H30      H        0.39500    0.26080    0.60880    1.000
    H31      H        0.56070    0.15880    0.49050    1.000
    H32      H        0.37110    0.15700    0.45350    1.000
    C1       C        0.04590    0.14580    0.16500    1.000
    C2       C        0.86280    0.11800    0.17710    1.000
    C3       C        0.75680    0.20830    0.22290    1.000
    C4       C        0.64700    0.38450    0.18250    1.000
    C5       C        0.69870    0.49070    0.13280    1.000
    C6       C        0.70090    0.48930    0.01230    1.000
    C7       C        0.54590    0.85420    0.83500    1.000
    C8       C        0.36280    0.88200    0.82290    1.000
    C9       C        0.25680    0.79170    0.77710    1.000
    C10      C        0.14700    0.61550    0.81750    1.000
    C11      C        0.19870    0.50930    0.86720    1.000
    C12      C        0.20090    0.51070    0.98770    1.000
    C13      C        0.29590    0.83500    0.14580    1.000
    C14      C        0.11280    0.82290    0.11800    1.000
    C15      C        0.00680    0.77710    0.20830    1.000
    C16      C        0.89700    0.81750    0.38450    1.000
    C17      C        0.94870    0.86720    0.49070    1.000
    C18      C        0.95090    0.98770    0.48930    1.000
    C19      C        0.79590    0.16500    0.85420    1.000
    C20      C        0.61280    0.17710    0.88200    1.000
    C21      C        0.50680    0.22290    0.79170    1.000
    C22      C        0.39700    0.18250    0.61550    1.000
    C23      C        0.44870    0.13280    0.50930    1.000
    C24      C        0.45090    0.01230    0.51070    1.000
    N1       N        0.10370    0.22540    0.10070    1.000
    N2       N        0.27510    0.22500    0.10810    1.000
    N3       N        0.32020    0.14600    0.17260    1.000
    N4       N        0.17750    0.09520    0.21040    1.000
    N5       N        0.79740    0.42220    0.95430    1.000
    N6       N        0.76660    0.44400    0.84910    1.000
    N7       N        0.65780    0.52240    0.84320    1.000
    N8       N        0.61400    0.55180    0.94650    1.000
    N9       N        0.60370    0.77460    0.89930    1.000
    N10      N        0.77510    0.77500    0.89190    1.000
    N11      N        0.82020    0.85400    0.82740    1.000
    N12      N        0.67750    0.90480    0.78960    1.000
    N13      N        0.29740    0.57780    0.04570    1.000
    N14      N        0.26660    0.55600    0.15090    1.000
    N15      N        0.15780    0.47760    0.15680    1.000
    N16      N        0.11400    0.44820    0.05350    1.000
    N17      N        0.35370    0.89930    0.22540    1.000
    N18      N        0.52510    0.89190    0.22500    1.000
    N19      N        0.57020    0.82740    0.14600    1.000
    N20      N        0.42750    0.78960    0.09520    1.000
    N21      N        0.04740    0.04570    0.42220    1.000
    N22      N        0.01660    0.15090    0.44400    1.000
    N23      N        0.90780    0.15680    0.52240    1.000
    N24      N        0.86400    0.05350    0.55180    1.000
    N25      N        0.85370    0.10070    0.77460    1.000
    N26      N        0.02510    0.10810    0.77500    1.000
    N27      N        0.07020    0.17260    0.85400    1.000
    N28      N        0.92750    0.21040    0.90480    1.000
    N29      N        0.54740    0.95430    0.57780    1.000
    N30      N        0.51660    0.84910    0.55600    1.000
    N31      N        0.40780    0.84320    0.47760    1.000
    N32      N        0.36400    0.94650    0.44820    1.000
    O1       O        0.76500    0.30100    0.15130    1.000
    O2       O        0.26500    0.69900    0.84870    1.000
    O3       O        0.01500    0.84870    0.30100    1.000
    O4       O        0.51500    0.15130    0.69900    1.000
