# CIF file generated by openbabel 3.1.0, see https://openbabel.org
data_I
_chemical_name_common 'LOVLEP_clean'
_cell_length_a 21.863
_cell_length_b 26.7455
_cell_length_c 36.741
_cell_angle_alpha 109.617
_cell_angle_beta 90
_cell_angle_gamma 114.125
_space_group_name_H-M_alt 'P 1'
_space_group_name_Hall 'P 1'
loop_
    _symmetry_equiv_pos_as_xyz
    x,y,z
loop_
    _atom_site_label
    _atom_site_type_symbol
    _atom_site_fract_x
    _atom_site_fract_y
    _atom_site_fract_z
    _atom_site_occupancy
    Cu1      Cu       0.15714    0.84324    0.33466    1.000
    Cu2      Cu       0.84286    0.15676    0.66534    1.000
    Cu3      Cu       0.22059    0.81324    0.52512    1.000
    Cu4      Cu       0.68610    0.84324    0.83466    1.000
    Cu5      Cu       0.69013    0.83588    0.60766    1.000
    Cu6      Cu       0.84981    0.16008    0.19356    1.000
    Cu7      Cu       0.51817    0.49880    0.21801    1.000
    Cu8      Cu       0.30987    0.16412    0.39234    1.000
    Cu9      Cu       0.00000    0.50000    0.00000    1.000
    Cu10     Cu       0.15019    0.83992    0.80644    1.000
    Cu11     Cu       0.01937    0.50120    0.28199    1.000
    Cu12     Cu       0.98063    0.49880    0.71801    1.000
    Cu13     Cu       0.59265    0.81324    0.02512    1.000
    Cu14     Cu       0.50000    0.50000    0.50000    1.000
    Cu15     Cu       0.14575    0.83588    0.10766    1.000
    Cu16     Cu       0.31390    0.15676    0.16534    1.000
    Cu17     Cu       0.31027    0.16008    0.69356    1.000
    Cu18     Cu       0.77941    0.18676    0.47488    1.000
    Cu19     Cu       0.68973    0.83992    0.30644    1.000
    Cu20     Cu       0.40735    0.18676    0.97488    1.000
    Cu21     Cu       0.85425    0.16412    0.89234    1.000
    Cu22     Cu       0.48183    0.50120    0.78199    1.000
    P1       P        0.49571    0.98662    0.69344    1.000
    P2       P        0.50909    0.01338    0.80656    1.000
    P3       P        0.49091    0.98662    0.19344    1.000
    P4       P        0.50429    0.01338    0.30656    1.000
    H1       H        0.65430    0.58460    0.19910    1.000
    H2       H        0.28810    0.02840    0.10280    1.000
    H3       H        0.71880    0.31940    0.80950    1.000
    H4       H        0.60360    0.39540    0.61240    1.000
    H5       H        0.28050    0.66800    0.75810    1.000
    H6       H        0.38590    0.46740    0.35660    1.000
    H7       H        0.15390    0.12940    0.40500    1.000
    H8       H        0.83770    0.35100    0.15550    1.000
    H9       H        0.15620    0.71700    0.89710    1.000
    H10      H        0.81570    0.92120    0.16440    1.000
    H11      H        0.18430    0.07880    0.83560    1.000
    H12      H        0.43920    0.28300    0.60290    1.000
    H13      H        0.96490    0.57220    0.57960    1.000
    H14      H        0.48930    0.02820    0.97560    1.000
    H15      H        0.66340    0.64780    0.69380    1.000
    H16      H        0.06970    0.41540    0.30090    1.000
    H17      H        0.38470    0.83660    0.42690    1.000
    H18      H        0.53320    0.66980    0.99480    1.000
    H19      H        0.90220    0.01320    0.36190    1.000
    H20      H        0.93030    0.58460    0.69910    1.000
    H21      H        0.43070    0.73800    0.89980    1.000
    H22      H        0.89550    0.56200    0.18230    1.000
    H23      H        0.61100    0.03040    0.00790    1.000
    H24      H        0.77820    0.96060    0.67510    1.000
    H25      H        0.25530    0.25960    0.39220    1.000
    H26      H        0.86550    0.94480    0.97810    1.000
    H27      H        0.05000    0.86680    0.63070    1.000
    H28      H        0.13450    0.05520    0.02190    1.000
    H29      H        0.91690    0.44060    0.40950    1.000
    H30      H        0.09250    0.98620    0.93870    1.000
    H31      H        0.16230    0.64900    0.84450    1.000
    H32      H        0.77620    0.18320    0.26580    1.000
    H33      H        0.10470    0.81480    0.57810    1.000
    H34      H        0.75300    0.20980    0.72080    1.000
    H35      H        0.33550    0.05780    0.91230    1.000
    H36      H        0.03030    0.09060    0.72640    1.000
    H37      H        0.53210    0.89320    0.01180    1.000
    H38      H        0.46340    0.21780    0.90390    1.000
    H39      H        0.41330    0.54640    0.20280    1.000
    H40      H        0.81660    0.03060    0.18680    1.000
    H41      H        0.42330    0.68940    0.75140    1.000
    H42      H        0.78550    0.69400    0.65050    1.000
    H43      H        0.97910    0.06240    0.79160    1.000
    H44      H        0.32460    0.38560    0.38490    1.000
    H45      H        0.83540    0.41780    0.45750    1.000
    H46      H        0.99040    0.04220    0.32750    1.000
    H47      H        0.39270    0.42780    0.92040    1.000
    H48      H        0.69320    0.29160    0.28750    1.000
    H49      H        0.33670    0.63780    0.80420    1.000
    H50      H        0.42850    0.36720    0.71990    1.000
    H51      H        0.47270    0.72380    0.23340    1.000
    H52      H        0.94560    0.06460    0.40110    1.000
    H53      H        0.97870    0.83780    0.20450    1.000
    H54      H        0.36010    0.48640    0.45850    1.000
    H55      H        0.16710    0.06340    0.52040    1.000
    H56      H        0.01740    0.02520    0.22370    1.000
    H57      H        0.63990    0.51360    0.54150    1.000
    H58      H        0.79330    0.79340    0.80590    1.000
    H59      H        0.57670    0.31060    0.24860    1.000
    H60      H        0.05370    0.99300    0.49730    1.000
    H61      H        0.01140    0.98640    0.35480    1.000
    H62      H        0.06100    0.38560    0.88490    1.000
    H63      H        0.50380    0.28800    0.34090    1.000
    H64      H        0.46680    0.33020    0.00520    1.000
    H65      H        0.94820    0.95780    0.17250    1.000
    H66      H        0.36110    0.89320    0.51180    1.000
    H67      H        0.33660    0.35220    0.30620    1.000
    H68      H        0.10080    0.53400    0.21820    1.000
    H69      H        0.86850    0.34560    0.07330    1.000
    H70      H        0.73390    0.31060    0.74860    1.000
    H71      H        0.25970    0.97160    0.39720    1.000
    H72      H        0.46210    0.63500    0.17300    1.000
    H73      H        0.63890    0.10680    0.48820    1.000
    H74      H        0.07320    0.95840    0.04410    1.000
    H75      H        0.82270    0.01320    0.00290    1.000
    H76      H        0.29040    0.09780    0.00940    1.000
    H77      H        0.04810    0.98380    0.43540    1.000
    H78      H        0.93870    0.36720    0.21990    1.000
    H79      H        0.45540    0.13700    0.14700    1.000
    H80      H        0.51990    0.67900    0.67980    1.000
    H81      H        0.17290    0.63500    0.67300    1.000
    H82      H        0.68160    0.13700    0.64700    1.000
    H83      H        0.97550    0.12940    0.90500    1.000
    H84      H        0.89370    0.98620    0.43870    1.000
    H85      H        0.94550    0.13740    0.80290    1.000
    H86      H        0.76480    0.25840    0.09090    1.000
    H87      H        0.10370    0.93660    0.97960    1.000
    H88      H        0.70960    0.90220    0.99060    1.000
    H89      H        0.75440    0.21780    0.40390    1.000
    H90      H        0.28480    0.81620    0.80990    1.000
    H91      H        0.96770    0.89960    0.63660    1.000
    H92      H        0.30020    0.73340    0.33180    1.000
    H93      H        0.52740    0.47920    0.97730    1.000
    H94      H        0.79530    0.33460    0.05820    1.000
    H95      H        0.46860    0.18380    0.69010    1.000
    H96      H        0.52720    0.69980    0.14240    1.000
    H97      H        0.97410    0.17020    0.24320    1.000
    H98      H        0.98580    0.38080    0.84220    1.000
    H99      H        0.79180    0.39540    0.11240    1.000
    H100     H        0.56680    0.26660    0.16820    1.000
    H101     H        0.30730    0.73800    0.39980    1.000
    H102     H        0.80390    0.82980    0.25680    1.000
    H103     H        0.01560    0.35220    0.80620    1.000
    H104     H        0.51330    0.35100    0.65550    1.000
    H105     H        0.53960    0.59380    0.46150    1.000
    H106     H        0.53550    0.26060    0.28900    1.000
    H107     H        0.17420    0.09320    0.62720    1.000
    H108     H        0.05710    0.30420    0.81150    1.000
    H109     H        0.26610    0.68940    0.25140    1.000
    H110     H        0.84380    0.28300    0.10290    1.000
    H111     H        0.16650    0.59080    0.14670    1.000
    H112     H        0.95000    0.13320    0.36930    1.000
    H113     H        0.25770    0.61740    0.71670    1.000
    H114     H        0.71950    0.33200    0.24190    1.000
    H115     H        0.91460    0.94160    0.21720    1.000
    H116     H        0.12190    0.75400    0.85180    1.000
    H117     H        0.20100    0.63660    0.22350    1.000
    H118     H        0.50640    0.74160    0.40910    1.000
    H119     H        0.58210    0.98900    0.96410    1.000
    H120     H        0.56130    0.42520    0.99890    1.000
    H121     H        0.90850    0.69400    0.15050    1.000
    H122     H        0.95190    0.01620    0.56460    1.000
    H123     H        0.66330    0.36220    0.19580    1.000
    H124     H        0.93570    0.98380    0.93540    1.000
    H125     H        0.25860    0.91120    0.88380    1.000
    H126     H        0.39600    0.62320    0.62760    1.000
    H127     H        0.18320    0.13320    0.86930    1.000
    H128     H        0.50890    0.74920    0.17010    1.000
    H129     H        0.03710    0.62920    0.05760    1.000
    H130     H        0.85650    0.10040    0.73160    1.000
    H131     H        0.46070    0.66540    0.44180    1.000
    H132     H        0.83350    0.40920    0.85330    1.000
    H133     H        0.88160    0.95640    0.74450    1.000
    H134     H        0.38900    0.96960    0.99210    1.000
    H135     H        0.58360    0.34480    0.84570    1.000
    H136     H        0.76180    0.32860    0.13900    1.000
    H137     H        0.34570    0.41540    0.80090    1.000
    H138     H        0.28990    0.18520    0.92190    1.000
    H139     H        0.94290    0.69580    0.18850    1.000
    H140     H        0.04820    0.52080    0.52270    1.000
    H141     H        0.41790    0.01100    0.03590    1.000
    H142     H        0.43320    0.67140    0.36100    1.000
    H143     H        0.71520    0.18380    0.19010    1.000
    H144     H        0.69980    0.26660    0.66820    1.000
    H145     H        0.07880    0.61800    0.59390    1.000
    H146     H        0.02450    0.87060    0.09500    1.000
    H147     H        0.13150    0.65440    0.92670    1.000
    H148     H        0.23520    0.74160    0.90910    1.000
    H149     H        0.91850    0.53260    0.14340    1.000
    H150     H        0.77280    0.37680    0.87240    1.000
    H151     H        0.13310    0.54640    0.70280    1.000
    H152     H        0.66570    0.70920    0.24080    1.000
    H153     H        0.46110    0.97180    0.52440    1.000
    H154     H        0.47280    0.30020    0.85760    1.000
    H155     H        0.24710    0.30420    0.31150    1.000
    H156     H        0.03230    0.10040    0.36340    1.000
    H157     H        0.60730    0.57220    0.07960    1.000
    H158     H        0.52290    0.65440    0.42670    1.000
    H159     H        0.01420    0.61920    0.15780    1.000
    H160     H        0.30110    0.63780    0.30420    1.000
    H161     H        0.43780    0.35720    0.16660    1.000
    H162     H        0.82710    0.36500    0.32700    1.000
    H163     H        0.61410    0.53260    0.64340    1.000
    H164     H        0.06810    0.10040    0.86340    1.000
    H165     H        0.57570    0.40920    0.35330    1.000
    H166     H        0.91900    0.09320    0.12720    1.000
    H167     H        0.35930    0.72760    0.83190    1.000
    H168     H        0.00780    0.02520    0.72370    1.000
    H169     H        0.23820    0.67140    0.86100    1.000
    H170     H        0.06070    0.00700    0.00270    1.000
    H171     H        0.04350    0.70920    0.74080    1.000
    H172     H        0.30680    0.70840    0.71250    1.000
    H173     H        0.06030    0.09060    0.22640    1.000
    H174     H        0.20820    0.60460    0.88760    1.000
    H175     H        0.53790    0.36500    0.82700    1.000
    H176     H        0.49110    0.25080    0.82990    1.000
    H177     H        0.76120    0.34480    0.34570    1.000
    H178     H        0.27770    0.94220    0.58770    1.000
    H179     H        0.43320    0.73340    0.83180    1.000
    H180     H        0.54560    0.50980    0.06640    1.000
    H181     H        0.05420    0.59380    0.96150    1.000
    H182     H        0.72510    0.26060    0.78900    1.000
    H183     H        0.43510    0.83380    0.88460    1.000
    H184     H        0.65400    0.70980    0.78510    1.000
    H185     H        0.10630    0.01380    0.56130    1.000
    H186     H        0.59210    0.62920    0.55760    1.000
    H187     H        0.53880    0.57580    0.02510    1.000
    H188     H        0.51370    0.50620    0.86850    1.000
    H189     H        0.47710    0.34560    0.57330    1.000
    H190     H        0.19190    0.13740    0.30290    1.000
    H191     H        0.11840    0.04360    0.25550    1.000
    H192     H        0.10170    0.12480    0.79100    1.000
    H193     H        0.02590    0.82980    0.75680    1.000
    H194     H        0.84500    0.19720    0.81820    1.000
    H195     H        0.49620    0.71200    0.65910    1.000
    H196     H        0.82580    0.90680    0.37280    1.000
    H197     H        0.96290    0.37080    0.94240    1.000
    H198     H        0.30310    0.64120    0.34750    1.000
    H199     H        0.96750    0.96460    0.60320    1.000
    H200     H        0.82740    0.30020    0.35760    1.000
    H201     H        0.41760    0.58220    0.04250    1.000
    H202     H        0.57150    0.63280    0.28010    1.000
    H203     H        0.39940    0.68060    0.69050    1.000
    H204     H        0.54810    0.16340    0.07310    1.000
    H205     H        0.16760    0.10340    0.11430    1.000
    H206     H        0.95650    0.29080    0.25920    1.000
    H207     H        0.67540    0.61440    0.61510    1.000
    H208     H        0.21580    0.71200    0.15910    1.000
    H209     H        0.59300    0.81680    0.23420    1.000
    H210     H        0.58670    0.45360    0.79720    1.000
    H211     H        0.54310    0.06080    0.52040    1.000
    H212     H        0.58440    0.47180    0.42960    1.000
    H213     H        0.16840    0.03200    0.95450    1.000
    H214     H        0.35970    0.61740    0.21670    1.000
    H215     H        0.60130    0.16620    0.61540    1.000
    H216     H        0.99250    0.50620    0.36850    1.000
    H217     H        0.61250    0.33200    0.74190    1.000
    H218     H        0.93580    0.10340    0.61430    1.000
    H219     H        0.22720    0.62320    0.12760    1.000
    H220     H        0.53140    0.81620    0.30990    1.000
    H221     H        0.86360    0.03200    0.45450    1.000
    H222     H        0.06700    0.46220    0.76040    1.000
    H223     H        0.00750    0.49380    0.63150    1.000
    H224     H        0.56680    0.32860    0.63900    1.000
    H225     H        0.63140    0.45260    0.21080    1.000
    H226     H        0.03250    0.03540    0.39680    1.000
    H227     H        0.75290    0.69580    0.68850    1.000
    H228     H        0.17260    0.69980    0.64240    1.000
    H229     H        0.35420    0.18700    0.09230    1.000
    H230     H        0.87370    0.51360    0.04150    1.000
    H231     H        0.83160    0.96800    0.04550    1.000
    H232     H        0.16720    0.81300    0.40770    1.000
    H233     H        0.33810    0.64120    0.84750    1.000
    H234     H        0.31840    0.86300    0.35300    1.000
    H235     H        0.66450    0.94220    0.08770    1.000
    H236     H        0.19050    0.01320    0.50290    1.000
    H237     H        0.78420    0.28800    0.84090    1.000
    H238     H        0.07930    0.94480    0.47810    1.000
    H239     H        0.63170    0.27240    0.66810    1.000
    H240     H        0.88740    0.47180    0.92960    1.000
    H241     H        0.93900    0.61440    0.11510    1.000
    H242     H        0.64580    0.81300    0.90770    1.000
    H243     H        0.03580    0.49020    0.43360    1.000
    H244     H        0.43560    0.63660    0.72350    1.000
    H245     H        0.48230    0.93920    0.97960    1.000
    H246     H        0.93300    0.53780    0.23960    1.000
    H247     H        0.36830    0.72760    0.33190    1.000
    H248     H        0.11480    0.04160    0.45590    1.000
    H249     H        0.39640    0.60460    0.38760    1.000
    H250     H        0.56930    0.26200    0.10020    1.000
    H251     H        0.91940    0.35720    0.66660    1.000
    H252     H        0.72230    0.05780    0.41230    1.000
    H253     H        0.14090    0.16220    0.29550    1.000
    H254     H        0.06420    0.89660    0.38570    1.000
    H255     H        0.19610    0.17020    0.74320    1.000
    H256     H        0.34600    0.29020    0.21490    1.000
    H257     H        0.38300    0.74980    0.39740    1.000
    H258     H        0.11960    0.40160    0.85970    1.000
    H259     H        0.08540    0.05840    0.78280    1.000
    H260     H        0.99570    0.74040    0.10780    1.000
    H261     H        0.46040    0.40620    0.53850    1.000
    H262     H        0.18240    0.96060    0.17510    1.000
    H263     H        0.88040    0.59840    0.14030    1.000
    H264     H        0.08310    0.55940    0.59050    1.000
    H265     H        0.11260    0.52820    0.07040    1.000
    H266     H        0.48010    0.32100    0.32020    1.000
    H267     H        0.03510    0.42780    0.42040    1.000
    H268     H        0.64780    0.80280    0.68180    1.000
    H269     H        0.05180    0.04220    0.82750    1.000
    H270     H        0.71010    0.81480    0.07810    1.000
    H271     H        0.36790    0.24600    0.64820    1.000
    H272     H        0.97690    0.87520    0.70900    1.000
    H273     H        0.48630    0.49380    0.13150    1.000
    H274     H        0.79900    0.36340    0.77650    1.000
    H275     H        0.45680    0.20980    0.22080    1.000
    H276     H        0.39500    0.38080    0.34220    1.000
    H277     H        0.18340    0.96940    0.81320    1.000
    H278     H        0.95180    0.47920    0.47730    1.000
    H279     H        0.80950    0.98680    0.49710    1.000
    H280     H        0.88100    0.93540    0.09890    1.000
    H281     H        0.56680    0.46600    0.28180    1.000
    H282     H        0.92070    0.05520    0.52190    1.000
    H283     H        0.02500    0.01360    0.14520    1.000
    H284     H        0.81680    0.86680    0.13070    1.000
    H285     H        0.46790    0.10680    0.98820    1.000
    H286     H        0.56440    0.36340    0.27650    1.000
    H287     H        0.94420    0.29020    0.71490    1.000
    H288     H        0.00010    0.79340    0.30590    1.000
    H289     H        0.52730    0.27620    0.76660    1.000
    H290     H        0.40690    0.98900    0.46410    1.000
    H291     H        0.02700    0.94160    0.71720    1.000
    H292     H        0.60480    0.53780    0.73960    1.000
    H293     H        0.02130    0.16220    0.79550    1.000
    H294     H        0.56220    0.64280    0.83340    1.000
    H295     H        0.86340    0.33020    0.50520    1.000
    H296     H        0.45440    0.49020    0.93360    1.000
    H297     H        0.10450    0.43800    0.81770    1.000
    H298     H        0.60500    0.61920    0.65780    1.000
    H299     H        0.20670    0.20660    0.19410    1.000
    H300     H        0.15910    0.67900    0.17980    1.000
    H301     H        0.17730    0.98680    0.99710    1.000
    H302     H        0.60400    0.37680    0.37240    1.000
    H303     H        0.98260    0.97480    0.77630    1.000
    H304     H        0.84090    0.32100    0.82020    1.000
    H305     H        0.09780    0.98680    0.63810    1.000
    H306     H        0.25110    0.72380    0.73340    1.000
    H307     H        0.17880    0.54740    0.28920    1.000
    H308     H        0.13660    0.66980    0.49480    1.000
    H309     H        0.40160    0.70840    0.21250    1.000
    H310     H        0.53920    0.61800    0.09390    1.000
    H311     H        0.99990    0.20660    0.69410    1.000
    H312     H        0.89630    0.06340    0.02040    1.000
    H313     H        0.82120    0.45260    0.71080    1.000
    H314     H        0.84610    0.87060    0.59500    1.000
    H315     H        0.20470    0.66540    0.94180    1.000
    H316     H        0.54460    0.86300    0.85300    1.000
    H317     H        0.02310    0.12480    0.29100    1.000
    H318     H        0.53660    0.78220    0.09610    1.000
    H319     H        0.88900    0.98680    0.13810    1.000
    H320     H        0.45190    0.83660    0.92690    1.000
    H321     H        0.86690    0.45360    0.29720    1.000
    H322     H        0.56080    0.71700    0.39710    1.000
    H323     H        0.46120    0.42420    0.97490    1.000
    H324     H        0.38750    0.66800    0.25810    1.000
    H325     H        0.06430    0.01620    0.06460    1.000
    H326     H        0.92120    0.38200    0.40610    1.000
    H327     H        0.13160    0.58400    0.87260    1.000
    H328     H        0.86840    0.41600    0.12740    1.000
    H329     H        0.93930    0.99300    0.99730    1.000
    H330     H        0.28200    0.40160    0.35970    1.000
    H331     H        0.08060    0.64280    0.33340    1.000
    H332     H        0.52370    0.44060    0.90950    1.000
    H333     H        0.16460    0.58220    0.54250    1.000
    H334     H        0.02090    0.93760    0.20840    1.000
    H335     H        0.41560    0.52820    0.57040    1.000
    H336     H        0.19260    0.90220    0.49060    1.000
    H337     H        0.33430    0.29080    0.75920    1.000
    H338     H        0.56490    0.16620    0.11540    1.000
    H339     H        0.49360    0.25840    0.59090    1.000
    H340     H        0.48670    0.64900    0.34450    1.000
    H341     H        0.98440    0.64780    0.19380    1.000
    H342     H        0.94580    0.40620    0.03850    1.000
    H343     H        0.05450    0.86260    0.19710    1.000
    H344     H        0.14350    0.89960    0.26840    1.000
    H345     H        0.81760    0.03940    0.82490    1.000
    H346     H        0.24030    0.74920    0.67010    1.000
    H347     H        0.41640    0.65520    0.15430    1.000
    H348     H        0.47260    0.52080    0.02270    1.000
    H349     H        0.36860    0.54740    0.78920    1.000
    H350     H        0.41940    0.03040    0.50790    1.000
    H351     H        0.00430    0.25960    0.89220    1.000
    H352     H        0.93970    0.90940    0.77360    1.000
    H353     H        0.13640    0.96800    0.54550    1.000
    H354     H        0.74030    0.02840    0.60280    1.000
    H355     H        0.89450    0.07880    0.33560    1.000
    H356     H        0.89830    0.87520    0.20900    1.000
    H357     H        0.89920    0.46600    0.78180    1.000
    H358     H        0.83290    0.93660    0.47960    1.000
    H359     H        0.80740    0.09780    0.50940    1.000
    H360     H        0.15500    0.80280    0.18180    1.000
    H361     H        0.40700    0.18320    0.76580    1.000
    H362     H        0.69270    0.26200    0.60020    1.000
    H363     H        0.94630    0.00700    0.50270    1.000
    H364     H        0.85910    0.83780    0.70450    1.000
    H365     H        0.09150    0.30600    0.84950    1.000
    H366     H        0.58060    0.96960    0.49210    1.000
    H367     H        0.13610    0.57480    0.50110    1.000
    H368     H        0.51070    0.97180    0.02440    1.000
    H369     H        0.96420    0.50980    0.56640    1.000
    H370     H        0.34740    0.08880    0.61620    1.000
    H371     H        0.63210    0.75400    0.35180    1.000
    H372     H        0.10550    0.92120    0.66440    1.000
    H373     H        0.21450    0.30600    0.34950    1.000
    H374     H        0.12630    0.48640    0.95850    1.000
    H375     H        0.97300    0.05840    0.28280    1.000
    H376     H        0.24700    0.79020    0.27920    1.000
    H377     H        0.78600    0.96940    0.31320    1.000
    H378     H        0.27490    0.73940    0.21100    1.000
    H379     H        0.11100    0.01320    0.86190    1.000
    H380     H        0.74890    0.27620    0.26660    1.000
    H381     H        0.05440    0.93540    0.59890    1.000
    H382     H        0.99220    0.97480    0.27630    1.000
    H383     H        0.08330    0.06240    0.29160    1.000
    H384     H        0.61530    0.16340    0.57310    1.000
    H385     H        0.58240    0.41780    0.95750    1.000
    H386     H        0.83240    0.89660    0.88570    1.000
    H387     H        0.74470    0.74040    0.60780    1.000
    H388     H        0.54320    0.79020    0.77920    1.000
    H389     H        0.92520    0.04360    0.75550    1.000
    H390     H        0.35220    0.19720    0.31820    1.000
    H391     H        0.75970    0.25080    0.32990    1.000
    H392     H        0.83280    0.18700    0.59230    1.000
    H393     H        0.96970    0.90940    0.27360    1.000
    H394     H        0.23880    0.65520    0.65430    1.000
    H395     H        0.66190    0.35880    0.15250    1.000
    H396     H        0.43870    0.57480    0.00110    1.000
    H397     H        0.64030    0.38260    0.78330    1.000
    H398     H        0.24560    0.78220    0.59610    1.000
    H399     H        0.86390    0.42520    0.49890    1.000
    H400     H        0.75610    0.89960    0.76840    1.000
    H401     H        0.93190    0.89960    0.13660    1.000
    H402     H        0.64070    0.27240    0.16810    1.000
    H403     H        0.71190    0.97160    0.89720    1.000
    H404     H        0.21400    0.03060    0.68680    1.000
    H405     H        0.39520    0.46220    0.26040    1.000
    H406     H        0.89530    0.18520    0.42190    1.000
    H407     H        0.74140    0.08880    0.11620    1.000
    H408     H        0.43320    0.53400    0.71820    1.000
    H409     H        0.03700    0.57580    0.52510    1.000
    H410     H        0.00960    0.95780    0.67250    1.000
    H411     H        0.46450    0.73940    0.71100    1.000
    H412     H        0.40790    0.37080    0.44240    1.000
    H413     H        0.42430    0.59080    0.64670    1.000
    H414     H        0.69890    0.36220    0.69580    1.000
    H415     H        0.97500    0.98640    0.85480    1.000
    H416     H        0.11900    0.06460    0.90110    1.000
    H417     H        0.66650    0.56200    0.68230    1.000
    H418     H        0.96300    0.42420    0.47490    1.000
    H419     H        0.46080    0.38200    0.90610    1.000
    H420     H        0.07480    0.95640    0.24450    1.000
    H421     H        0.45240    0.58400    0.37260    1.000
    H422     H        0.71800    0.59840    0.64030    1.000
    H423     H        0.91670    0.93760    0.70840    1.000
    H424     H        0.06130    0.63280    0.78010    1.000
    H425     H        0.92680    0.04160    0.95590    1.000
    H426     H        0.98860    0.01360    0.64520    1.000
    H427     H        0.59840    0.29160    0.78750    1.000
    H428     H        0.63320    0.25020    0.10260    1.000
    H429     H        0.36680    0.74980    0.89740    1.000
    H430     H        0.00290    0.03540    0.89680    1.000
    H431     H        0.28120    0.68060    0.19050    1.000
    H432     H        0.22380    0.81680    0.73420    1.000
    H433     H        0.87810    0.24600    0.14820    1.000
    H434     H        0.39870    0.83380    0.38460    1.000
    H435     H        0.51770    0.06080    0.02040    1.000
    H436     H        0.22180    0.03940    0.32490    1.000
    H437     H        0.69690    0.35880    0.65250    1.000
    H438     H        0.47630    0.55940    0.09050    1.000
    H439     H        0.53930    0.33460    0.55820    1.000
    H440     H        0.90750    0.01380    0.06130    1.000
    H441     H        0.61700    0.25020    0.60260    1.000
    H442     H        0.88520    0.95840    0.54410    1.000
    H443     H        0.54760    0.41600    0.62740    1.000
    H444     H        0.45690    0.93920    0.47960    1.000
    H445     H        0.08100    0.90680    0.87280    1.000
    H446     H        0.65260    0.91120    0.38380    1.000
    H447     H        0.33350    0.43800    0.31770    1.000
    H448     H        0.99710    0.96460    0.10320    1.000
    H449     H        0.24390    0.10040    0.23160    1.000
    H450     H        0.80810    0.86260    0.69710    1.000
    H451     H        0.05580    0.70980    0.28510    1.000
    H452     H        0.53890    0.02820    0.47560    1.000
    H453     H        0.60060    0.31940    0.30950    1.000
    H454     H        0.74230    0.38260    0.28330    1.000
    H455     H        0.59310    0.01100    0.53590    1.000
    H456     H        0.08150    0.46740    0.85660    1.000
    W1       W        0.40457    0.08848    0.81433    1.000
    W2       W        0.39003    0.05684    0.70641    1.000
    W3       W        0.47764    0.04060    0.62066    1.000
    W4       W        0.43470    0.85932    0.78049    1.000
    W5       W        0.58979    0.16698    0.82666    1.000
    W6       W        0.43704    0.95940    0.87934    1.000
    W7       W        0.40293    0.89354    0.59932    1.000
    W8       W        0.57538    0.14068    0.71951    1.000
    W9       W        0.68387    0.09180    0.81509    1.000
    W10      W        0.42281    0.83302    0.67334    1.000
    W11      W        0.57221    0.96632    0.60984    1.000
    W12      W        0.42462    0.85932    0.28049    1.000
    W13      W        0.33319    0.94316    0.79359    1.000
    W14      W        0.39539    0.06748    0.20748    1.000
    W15      W        0.59207    0.90820    0.68491    1.000
    W16      W        0.40793    0.09180    0.31509    1.000
    W17      W        0.67209    0.06748    0.70748    1.000
    W18      W        0.50939    0.10646    0.90068    1.000
    W19      W        0.32791    0.93252    0.29252    1.000
    W20      W        0.52236    0.95940    0.37934    1.000
    W21      W        0.68391    0.08848    0.31433    1.000
    W22      W        0.59707    0.10646    0.40068    1.000
    W23      W        0.57719    0.16698    0.32666    1.000
    W24      W        0.56530    0.14068    0.21951    1.000
    W25      W        0.60997    0.94316    0.29359    1.000
    W26      W        0.42779    0.03368    0.39016    1.000
    W27      W        0.66681    0.05684    0.20641    1.000
    W28      W        0.60461    0.93252    0.79252    1.000
    W29      W        0.41021    0.83302    0.17334    1.000
    W30      W        0.60589    0.03368    0.89016    1.000
    W31      W        0.31609    0.91152    0.68567    1.000
    W32      W        0.31613    0.90820    0.18491    1.000
    W33      W        0.56296    0.04060    0.12066    1.000
    W34      W        0.39411    0.96632    0.10984    1.000
    W35      W        0.49061    0.89354    0.09932    1.000
    W36      W        0.59543    0.91152    0.18567    1.000
    C1       C        0.62040    0.56920    0.17780    1.000
    C2       C        0.59100    0.00960    0.50910    1.000
    C3       C        0.61850    0.71700    0.77820    1.000
    C4       C        0.89580    0.98620    0.98510    1.000
    C5       C        0.15910    0.68660    0.52040    1.000
    C6       C        0.07230    0.37660    0.85870    1.000
    C7       C        0.20960    0.18520    0.20890    1.000
    C8       C        0.13240    0.97820    0.98580    1.000
    C9       C        0.77850    0.08040    0.11090    1.000
    C10      C        0.55090    0.61700    0.56680    1.000
    C11      C        0.52380    0.46360    0.28560    1.000
    C12      C        0.16580    0.76480    0.84590    1.000
    C13      C        0.21510    0.96560    0.39960    1.000
    C14      C        0.85720    0.04960    0.84090    1.000
    C15      C        0.30190    0.08040    0.61090    1.000
    C16      C        0.11070    0.78100    0.16850    1.000
    C17      C        0.39680    0.21500    0.77060    1.000
    C18      C        0.93670    0.05360    0.37300    1.000
    C19      C        0.97720    0.93440    0.25850    1.000
    C20      C        0.25950    0.69200    0.71560    1.000
    C21      C        0.22150    0.91960    0.88910    1.000
    C22      C        0.48040    0.68120    0.66980    1.000
    C23      C        0.40100    0.23520    0.65410    1.000
    C24      C        0.98680    0.55000    0.58520    1.000
    C25      C        0.74640    0.20240    0.17620    1.000
    C26      C        0.47210    0.66620    0.36860    1.000
    C27      C        0.50750    0.42560    0.54240    1.000
    C28      C        0.84580    0.97820    0.48580    1.000
    C29      C        0.86320    0.00880    0.05170    1.000
    C30      C        0.61170    0.82060    0.89920    1.000
    C31      C        0.55260    0.30320    0.29920    1.000
    C32      C        0.90960    0.91320    0.22940    1.000
    C33      C        0.44570    0.57500    0.22440    1.000
    C34      C        0.99870    0.94100    0.64420    1.000
    C35      C        0.37960    0.43080    0.82220    1.000
    C36      C        0.15420    0.02180    0.51420    1.000
    C37      C        0.78250    0.25300    0.42390    1.000
    C38      C        0.48710    0.02340    0.00070    1.000
    C39      C        0.86760    0.02180    0.01420    1.000
    C40      C        0.79920    0.31880    0.83020    1.000
    C41      C        0.52950    0.74700    0.07610    1.000
    C42      C        0.67340    0.91200    0.99510    1.000
    C43      C        0.52790    0.33380    0.63140    1.000
    C44      C        0.52600    0.36400    0.57490    1.000
    C45      C        0.45620    0.59180    0.02880    1.000
    C46      C        0.02920    0.92840    0.23070    1.000
    C47      C        0.79680    0.23900    0.72430    1.000
    C48      C        0.77300    0.32100    0.76690    1.000
    C49      C        0.51710    0.57560    0.07970    1.000
    C50      C        0.12540    0.91660    0.88230    1.000
    C51      C        0.91810    0.42560    0.04240    1.000
    C52      C        0.18630    0.07660    0.10660    1.000
    C53      C        0.11690    0.05360    0.87300    1.000
    C54      C        0.64460    0.61720    0.66810    1.000
    C55      C        0.80760    0.95040    0.65910    1.000
    C56      C        0.54380    0.40820    0.97120    1.000
    C57      C        0.44740    0.69680    0.70080    1.000
    C58      C        0.41860    0.00960    0.00910    1.000
    C59      C        0.10430    0.56080    0.07380    1.000
    C60      C        0.35540    0.38280    0.33190    1.000
    C61      C        0.47400    0.63600    0.42510    1.000
    C62      C        0.19780    0.71960    0.88730    1.000
    C63      C        0.00130    0.05900    0.35580    1.000
    C64      C        0.88930    0.21900    0.83150    1.000
    C65      C        0.02740    0.38280    0.83190    1.000
    C66      C        0.05850    0.57560    0.57970    1.000
    C67      C        0.49250    0.57440    0.45760    1.000
    C68      C        0.45270    0.81740    0.89950    1.000
    C69      C        0.83420    0.23520    0.15410    1.000
    C70      C        0.09390    0.99920    0.44890    1.000
    C71      C        0.78490    0.03440    0.60040    1.000
    C72      C        0.91580    0.27480    0.26820    1.000
    C73      C        0.85440    0.99120    0.44830    1.000
    C74      C        0.19950    0.05540    0.70510    1.000
    C75      C        0.70970    0.15280    0.63080    1.000
    C76      C        0.05120    0.43080    0.32220    1.000
    C77      C        0.03060    0.46300    0.77320    1.000
    C78      C        0.97260    0.61720    0.16810    1.000
    C79      C        0.94880    0.56920    0.67780    1.000
    C80      C        0.97400    0.25040    0.87060    1.000
    C81      C        0.94150    0.42440    0.42030    1.000
    C82      C        0.89920    0.92840    0.73070    1.000
    C83      C        0.99340    0.02860    0.86930    1.000
    C84      C        0.24950    0.03440    0.10040    1.000
    C85      C        0.44910    0.38300    0.43320    1.000
    C86      C        0.55430    0.42500    0.77560    1.000
    C87      C        0.89030    0.07660    0.60660    1.000
    C88      C        0.28870    0.65460    0.32910    1.000
    C89      C        0.69810    0.91960    0.38910    1.000
    C90      C        0.97080    0.07160    0.76930    1.000
    C91      C        0.46880    0.47980    0.85780    1.000
    C92      C        0.68700    0.92120    0.09200    1.000
    C93      C        0.14560    0.00880    0.55170    1.000
    C94      C        0.75120    0.35080    0.26620    1.000
    C95      C        0.53630    0.02340    0.50070    1.000
    C96      C        0.63410    0.34540    0.17090    1.000
    C97      C        0.36590    0.65460    0.82910    1.000
    C98      C        0.79040    0.81480    0.79110    1.000
    C99      C        0.25360    0.79760    0.82380    1.000
    C100     C        0.65440    0.24520    0.61260    1.000
    C101     C        0.54350    0.43920    0.42620    1.000
    C102     C        0.47250    0.31340    0.97960    1.000
    C103     C        0.53120    0.52020    0.14220    1.000
    C104     C        0.93980    0.46360    0.78560    1.000
    C105     C        0.40900    0.99040    0.49090    1.000
    C106     C        0.40040    0.64920    0.23380    1.000
    C107     C        0.62810    0.56220    0.66960    1.000
    C108     C        0.52750    0.68660    0.02040    1.000
    C109     C        0.39690    0.51840    0.45620    1.000
    C110     C        0.67350    0.28120    0.65710    1.000
    C111     C        0.45600    0.20240    0.67620    1.000
    C112     C        0.20880    0.08340    0.61770    1.000
    C113     C        0.23860    0.91200    0.49510    1.000
    C114     C        0.43730    0.62260    0.63690    1.000
    C115     C        0.18530    0.62260    0.13690    1.000
    C116     C        0.95720    0.93440    0.75850    1.000
    C117     C        0.09850    0.71700    0.27820    1.000
    C118     C        0.54640    0.33160    0.82520    1.000
    C119     C        0.09040    0.08680    0.77060    1.000
    C120     C        0.34560    0.75480    0.38740    1.000
    C121     C        0.14110    0.85200    0.58670    1.000
    C122     C        0.22840    0.12680    0.22930    1.000
    C123     C        0.28910    0.14800    0.91330    1.000
    C124     C        0.58140    0.99040    0.99090    1.000
    C125     C        0.27640    0.25040    0.37060    1.000
    C126     C        0.36470    0.81740    0.39950    1.000
    C127     C        0.44310    0.15280    0.13080    1.000
    C128     C        0.00360    0.91320    0.72940    1.000
    C129     C        0.05710    0.90000    0.11610    1.000
    C130     C        0.83110    0.42180    0.69590    1.000
    C131     C        0.81820    0.21500    0.27060    1.000
    C132     C        0.48420    0.36920    0.17200    1.000
    C133     C        0.44220    0.23900    0.22430    1.000
    C134     C        0.55690    0.84720    0.86920    1.000
    C135     C        0.55780    0.76100    0.77570    1.000
    C136     C        0.13680    0.99120    0.94830    1.000
    C137     C        0.84290    0.90000    0.61610    1.000
    C138     C        0.94290    0.10000    0.88390    1.000
    C139     C        0.90960    0.01380    0.51490    1.000
    C140     C        0.51960    0.31880    0.33020    1.000
    C141     C        0.82720    0.38240    0.11170    1.000
    C142     C        0.43680    0.45000    0.91480    1.000
    C143     C        0.45200    0.67900    0.73310    1.000
    C144     C        0.79110    0.17940    0.60080    1.000
    C145     C        0.51290    0.97660    0.99930    1.000
    C146     C        0.25690    0.31280    0.33930    1.000
    C147     C        0.06010    0.86820    0.76550    1.000
    C148     C        0.19410    0.66620    0.86860    1.000
    C149     C        0.89840    0.12680    0.72930    1.000
    C150     C        0.56270    0.37740    0.36310    1.000
    C151     C        0.10160    0.87320    0.27070    1.000
    C152     C        0.96480    0.97140    0.63070    1.000
    C153     C        0.32650    0.71880    0.34290    1.000
    C154     C        0.02440    0.81480    0.29110    1.000
    C155     C        0.67030    0.78100    0.66850    1.000
    C156     C        0.93410    0.56220    0.16960    1.000
    C157     C        0.01320    0.45000    0.41480    1.000
    C158     C        0.14280    0.95040    0.15910    1.000
    C159     C        0.04280    0.06560    0.24150    1.000
    C160     C        0.88310    0.94640    0.12700    1.000
    C161     C        0.99640    0.08680    0.27060    1.000
    C162     C        0.86440    0.40820    0.47120    1.000
    C163     C        0.84230    0.86660    0.71640    1.000
    C164     C        0.24880    0.64920    0.73380    1.000
    C165     C        0.12930    0.57500    0.72440    1.000
    C166     C        0.43250    0.69200    0.21560    1.000
    C167     C        0.87460    0.08340    0.11770    1.000
    C168     C        0.77160    0.87320    0.77070    1.000
    C169     C        0.13560    0.59180    0.52880    1.000
    C170     C        0.08420    0.72520    0.73180    1.000
    C171     C        0.91200    0.09480    0.36340    1.000
    C172     C        0.19190    0.13180    0.73450    1.000
    C173     C        0.45650    0.56080    0.57380    1.000
    C174     C        0.18280    0.09480    0.86340    1.000
    C175     C        0.59070    0.42180    0.19590    1.000
    C176     C        0.85890    0.14800    0.41330    1.000
    C177     C        0.75050    0.96560    0.89960    1.000
    C178     C        0.11500    0.63080    0.32800    1.000
    C179     C        0.49760    0.56300    0.03620    1.000
    C180     C        0.78520    0.33160    0.32520    1.000
    C181     C        0.40930    0.57820    0.80410    1.000
    C182     C        0.80050    0.94460    0.29490    1.000
    C183     C        0.06330    0.94640    0.62700    1.000
    C184     C        0.53020    0.62200    0.26560    1.000
    C185     C        0.74310    0.68720    0.66070    1.000
    C186     C        0.87850    0.48160    0.04380    1.000
    C187     C        0.46370    0.97660    0.49930    1.000
    C188     C        0.89570    0.43920    0.92620    1.000
    C189     C        0.54730    0.18260    0.10050    1.000
    C190     C        0.56320    0.55000    0.08520    1.000
    C191     C        0.93460    0.43700    0.46380    1.000
    C192     C        0.81470    0.37740    0.86310    1.000
    C193     C        0.87070    0.42500    0.27560    1.000
    C194     C        0.14410    0.94460    0.79490    1.000
    C195     C        0.22700    0.67900    0.23310    1.000
    C196     C        0.57650    0.90600    0.00660    1.000
    C197     C        0.83800    0.36400    0.07490    1.000
    C198     C        0.16200    0.63600    0.92510    1.000
    C199     C        0.08800    0.90520    0.63660    1.000
    C200     C        0.92770    0.62340    0.14130    1.000
    C201     C        0.20890    0.82060    0.39920    1.000
    C202     C        0.02600    0.74960    0.12940    1.000
    C203     C        0.06020    0.53640    0.21440    1.000
    C204     C        0.59080    0.24520    0.11260    1.000
    C205     C        0.81720    0.90520    0.13660    1.000
    C206     C        0.10080    0.07160    0.26930    1.000
    C207     C        0.35900    0.27480    0.76820    1.000
    C208     C        0.90820    0.37800    0.23440    1.000
    C209     C        0.51580    0.63080    0.82800    1.000
    C210     C        0.74050    0.30800    0.28440    1.000
    C211     C        0.59900    0.76480    0.34590    1.000
    C212     C        0.09180    0.62200    0.76560    1.000
    C213     C        0.52180    0.71960    0.38730    1.000
    C214     C        0.80140    0.28460    0.33170    1.000
    C215     C        0.54400    0.79760    0.32380    1.000
    C216     C        0.19240    0.04960    0.34090    1.000
    C217     C        0.56750    0.30800    0.78440    1.000
    C218     C        0.80590    0.33380    0.13140    1.000
    C219     C        0.10420    0.01380    0.01490    1.000
    C220     C        0.02280    0.06560    0.74150    1.000
    C221     C        0.93390    0.38300    0.93320    1.000
    C222     C        0.40920    0.75480    0.88740    1.000
    C223     C        0.39230    0.71880    0.84290    1.000
    C224     C        0.76140    0.08800    0.50490    1.000
    C225     C        0.32660    0.08800    0.00490    1.000
    C226     C        0.38150    0.28300    0.22180    1.000
    C227     C        0.19860    0.71540    0.66830    1.000
    C228     C        0.37190    0.43780    0.33040    1.000
    C229     C        0.06610    0.61700    0.06680    1.000
    C230     C        0.98900    0.52020    0.64220    1.000
    C231     C        0.05770    0.05900    0.85580    1.000
    C232     C        0.75060    0.30320    0.79920    1.000
    C233     C        0.29030    0.84720    0.36920    1.000
    C234     C        0.05590    0.31280    0.83930    1.000
    C235     C        0.69570    0.62340    0.64130    1.000
    C236     C        0.10970    0.92340    0.39340    1.000
    C237     C        0.97570    0.13340    0.78360    1.000
    C238     C        0.02430    0.86660    0.21640    1.000
    C239     C        0.59960    0.35080    0.76620    1.000
    C240     C        0.88500    0.36920    0.67200    1.000
    C241     C        0.31300    0.07880    0.90800    1.000
    C242     C        0.93990    0.13180    0.23450    1.000
    C243     C        0.90530    0.99920    0.94890    1.000
    C244     C        0.71130    0.34540    0.67090    1.000
    C245     C        0.90150    0.28300    0.72180    1.000
    C246     C        0.21480    0.66840    0.67480    1.000
    C247     C        0.48290    0.42440    0.92030    1.000
    C248     C        0.20320    0.76100    0.27570    1.000
    C249     C        0.18180    0.78500    0.72940    1.000
    C250     C        0.12150    0.51840    0.95620    1.000
    C251     C        0.72360    0.74960    0.62940    1.000
    C252     C        0.16890    0.57820    0.30410    1.000
    C253     C        0.45360    0.66840    0.17480    1.000
    C254     C        0.50240    0.43700    0.96380    1.000
    C255     C        0.21750    0.74700    0.57610    1.000
    C256     C        0.46980    0.37800    0.73440    1.000
    C257     C        0.96940    0.53700    0.22680    1.000
    C258     C        0.94410    0.68720    0.16070    1.000
    C259     C        0.79120    0.91660    0.38230    1.000
    C260     C        0.32970    0.21900    0.33150    1.000
    C261     C        0.47820    0.28040    0.61270    1.000
    C262     C        0.06590    0.43780    0.83040    1.000
    C263     C        0.32950    0.90600    0.50660    1.000
    C264     C        0.80220    0.28040    0.11270    1.000
    C265     C        0.01100    0.47980    0.35780    1.000
    C266     C        0.80810    0.86820    0.26550    1.000
    C267     C        0.76580    0.07880    0.40800    1.000
    C268     C        0.44480    0.61760    0.38830    1.000
    C269     C        0.85590    0.05540    0.20510    1.000
    C270     C        0.56760    0.53700    0.72680    1.000
    C271     C        0.15770    0.13340    0.28360    1.000
    C272     C        0.15710    0.10000    0.38390    1.000
    C273     C        0.23420    0.92120    0.59200    1.000
    C274     C        0.43240    0.46300    0.27320    1.000
    C275     C        0.81370    0.92340    0.89340    1.000
    C276     C        0.60310    0.48160    0.54380    1.000
    C277     C        0.64100    0.72520    0.23180    1.000
    C278     C        0.47050    0.25300    0.92390    1.000
    C279     C        0.97560    0.18520    0.70890    1.000
    C280     C        0.54800    0.32100    0.26690    1.000
    C281     C        0.55520    0.38240    0.61170    1.000
    C282     C        0.09040    0.98620    0.48510    1.000
    C283     C        0.47620    0.53640    0.71440    1.000
    C284     C        0.24940    0.69680    0.20080    1.000
    C285     C        0.67050    0.09400    0.49340    1.000
    C286     C        0.38830    0.17940    0.10080    1.000
    C287     C        0.06540    0.56300    0.53620    1.000
    C288     C        0.00660    0.97140    0.13070    1.000
    C289     C        0.09470    0.00080    0.05110    1.000
    C290     C        0.60770    0.28120    0.15710    1.000
    C291     C        0.03520    0.02860    0.36930    1.000
    C292     C        0.84090    0.31340    0.47960    1.000
    C293     C        0.90610    0.00080    0.55110    1.000
    C294     C        0.17280    0.61760    0.88830    1.000
    C295     C        0.60320    0.78500    0.22940    1.000
    C296     C        0.08190    0.57440    0.95760    1.000
    C297     C        0.51680    0.71540    0.16830    1.000
    C298     C        0.63530    0.18260    0.60050    1.000
    C299     C        0.20080    0.68120    0.16980    1.000
    C300     C        0.42350    0.09400    0.99340    1.000
    C301     C        0.71090    0.85200    0.08670    1.000
    C302     C        0.94230    0.94100    0.14420    1.000
    C303     C        0.48320    0.28460    0.83170    1.000
    C304     C        0.30430    0.37660    0.35870    1.000
    N1       N        0.53840    0.74860    0.35740    1.000
    N2       N        0.56300    0.67740    0.75300    1.000
    N3       N        0.61120    0.44800    0.56070    1.000
    N4       N        0.27010    0.10540    0.63790    1.000
    N5       N        0.46160    0.25140    0.64260    1.000
    N6       N        0.26650    0.77000    0.84290    1.000
    N7       N        0.85090    0.90900    0.25670    1.000
    N8       N        0.65600    0.04820    0.50430    1.000
    N9       N        0.15850    0.02580    0.07800    1.000
    N10      N        0.82180    0.37480    0.25780    1.000
    N11      N        0.15520    0.65860    0.76940    1.000
    N12      N        0.90740    0.21380    0.86490    1.000
    N13      N        0.33370    0.13560    0.92700    1.000
    N14      N        0.84220    0.04540    0.08260    1.000
    N15      N        0.89290    0.95040    0.63610    1.000
    N16      N        0.82650    0.81900    0.75840    1.000
    N17      N        0.07140    0.53240    0.97020    1.000
    N18      N        0.20120    0.69500    0.57810    1.000
    N19      N        0.75420    0.84300    0.79750    1.000
    N20      N        0.46090    0.34800    0.40420    1.000
    N21      N        0.78980    0.25140    0.14260    1.000
    N22      N        0.20210    0.94600    0.61830    1.000
    N23      N        0.18340    0.66680    0.33890    1.000
    N24      N        0.50550    0.55100    0.68640    1.000
    N25      N        0.34400    0.95180    0.49570    1.000
    N26      N        0.49450    0.44900    0.31360    1.000
    N27      N        0.47750    0.17080    0.10630    1.000
    N28      N        0.49380    0.69500    0.07810    1.000
    N29      N        0.02260    0.45080    0.37600    1.000
    N30      N        0.84080    0.26680    0.30180    1.000
    N31      N        0.92640    0.43300    0.26100    1.000
    N32      N        0.11530    0.96460    0.77510    1.000
    N33      N        0.88470    0.03540    0.22490    1.000
    N34      N        0.63230    0.58380    0.14760    1.000
    N35      N        0.16610    0.65800    0.54080    1.000
    N36      N        0.44330    0.18700    0.08430    1.000
    N37      N        0.79880    0.30500    0.42190    1.000
    N38      N        0.84930    0.96460    0.27510    1.000
    N39      N        0.69330    0.17080    0.60630    1.000
    N40      N        0.79990    0.99640    0.57590    1.000
    N41      N        0.39220    0.04820    0.00430    1.000
    N42      N        0.73500    0.95580    0.42250    1.000
    N43      N        0.15070    0.03540    0.72490    1.000
    N44      N        0.27980    0.27120    0.34370    1.000
    N45      N        0.53910    0.65200    0.59580    1.000
    N46      N        0.28460    0.95540    0.48920    1.000
    N47      N        0.13270    0.58740    0.93950    1.000
    N48      N        0.53900    0.46760    0.52980    1.000
    N49      N        0.83990    0.08500    0.62310    1.000
    N50      N        0.93660    0.25600    0.81840    1.000
    N51      N        0.72990    0.89460    0.36210    1.000
    N52      N        0.24330    0.10160    0.88620    1.000
    N53      N        0.15920    0.73320    0.69820    1.000
    N54      N        0.68060    0.74400    0.68160    1.000
    N55      N        0.78430    0.36820    0.67560    1.000
    N56      N        0.53270    0.42700    0.19270    1.000
    N57      N        0.31940    0.25600    0.31840    1.000
    N58      N        0.87020    0.98700    0.66380    1.000
    N59      N        0.95150    0.58380    0.64760    1.000
    N60      N        0.50810    0.34200    0.95920    1.000
    N61      N        0.11440    0.67740    0.25300    1.000
    N62      N        0.11680    0.98700    0.16380    1.000
    N63      N        0.39380    0.20160    0.67510    1.000
    N64      N        0.20010    0.00360    0.42410    1.000
    N65      N        0.04850    0.41620    0.35240    1.000
    N66      N        0.44700    0.62520    0.24220    1.000
    N67      N        0.19650    0.99640    0.07590    1.000
    N68      N        0.49650    0.23000    0.65710    1.000
    N69      N        0.13320    0.61120    0.10160    1.000
    N70      N        0.22340    0.83960    0.37020    1.000
    N71      N        0.52200    0.38880    0.39840    1.000
    N72      N        0.94190    0.09100    0.24330    1.000
    N73      N        0.52250    0.82920    0.89370    1.000
    N74      N        0.98710    0.47520    0.76280    1.000
    N75      N        0.51660    0.33320    0.16110    1.000
    N76      N        0.22750    0.11460    0.71310    1.000
    N77      N        0.47800    0.61120    0.60160    1.000
    N78      N        0.45470    0.58740    0.43950    1.000
    N79      N        0.46730    0.57300    0.80730    1.000
    N80      N        0.10570    0.57300    0.30730    1.000
    N81      N        0.50660    0.43300    0.76100    1.000
    N82      N        0.90130    0.30400    0.30040    1.000
    N83      N        0.43700    0.32260    0.24700    1.000
    N84      N        0.75490    0.91500    0.87690    1.000
    N85      N        0.43290    0.45080    0.30610    1.000
    N86      N        0.84480    0.34140    0.23060    1.000
    N87      N        0.19220    0.79840    0.82490    1.000
    N88      N        0.41610    0.63180    0.82440    1.000
    N89      N        0.61620    0.83960    0.87020    1.000
    N90      N        0.88710    0.34800    0.90420    1.000
    N91      N        0.07360    0.56700    0.73900    1.000
    N92      N        0.49660    0.34140    0.73060    1.000
    N93      N        0.80350    0.00360    0.92410    1.000
    N94      N        0.16470    0.89460    0.86210    1.000
    N95      N        0.73350    0.23000    0.15710    1.000
    N96      N        0.18830    0.14220    0.24900    1.000
    N97      N        0.81030    0.25460    0.45800    1.000
    N98      N        0.18390    0.70740    0.25400    1.000
    N99      N        0.88840    0.10280    0.86920    1.000
    N100     N        0.83680    0.44800    0.06070    1.000
    N101     N        0.50340    0.65860    0.26940    1.000
    N102     N        0.30670    0.82920    0.39370    1.000
    N103     N        0.77920    0.04420    0.07750    1.000
    N104     N        0.83390    0.34200    0.45920    1.000
    N105     N        0.57180    0.54920    0.12400    1.000
    N106     N        0.12980    0.01300    0.33620    1.000
    N107     N        0.14910    0.09100    0.74330    1.000
    N108     N        0.11290    0.65200    0.09580    1.000
    N109     N        0.15780    0.95460    0.91740    1.000
    N110     N        0.92860    0.46760    0.02980    1.000
    N111     N        0.18970    0.74540    0.54200    1.000
    N112     N        0.24580    0.15700    0.20250    1.000
    N113     N        0.55570    0.74540    0.04200    1.000
    N114     N        0.88560    0.32260    0.74700    1.000
    N115     N        0.83530    0.10540    0.13790    1.000
    N116     N        0.69360    0.78620    0.63510    1.000
    N117     N        0.50620    0.30500    0.92190    1.000
    N118     N        0.09260    0.78620    0.13510    1.000
    N119     N        0.79790    0.05400    0.38170    1.000
    N120     N        0.35180    0.21760    0.74790    1.000
    N121     N        0.05750    0.95040    0.13610    1.000
    N122     N        0.01790    0.45080    0.80610    1.000
    N123     N        0.26400    0.88100    0.50900    1.000
    N124     N        0.55300    0.37480    0.75780    1.000
    N125     N        0.74370    0.18700    0.58430    1.000
    N126     N        0.13270    0.97420    0.42200    1.000
    N127     N        0.95450    0.44900    0.81360    1.000
    N128     N        0.02700    0.46900    0.32270    1.000
    N129     N        0.98210    0.54920    0.19390    1.000
    N130     N        0.61700    0.88100    0.00900    1.000
    N131     N        0.86680    0.38880    0.89840    1.000
    N132     N        0.81660    0.33320    0.66110    1.000
    N133     N        0.40270    0.30400    0.80040    1.000
    N134     N        0.50350    0.56360    0.55060    1.000
    N135     N        0.44200    0.46900    0.82270    1.000
    N136     N        0.49190    0.65800    0.04080    1.000
    N137     N        0.95390    0.14220    0.74900    1.000
    N138     N        0.36770    0.41620    0.85240    1.000
    N139     N        0.55670    0.81300    0.91570    1.000
    N140     N        0.21440    0.10280    0.36920    1.000
    N141     N        0.79680    0.95460    0.41740    1.000
    N142     N        0.06340    0.74400    0.18160    1.000
    N143     N        0.93990    0.43640    0.94940    1.000
    N144     N        0.20320    0.04540    0.58260    1.000
    N145     N        0.19810    0.86440    0.57300    1.000
    N146     N        0.80190    0.13560    0.42700    1.000
    N147     N        0.71540    0.04460    0.51080    1.000
    N148     N        0.55800    0.53100    0.17730    1.000
    N149     N        0.78560    0.89720    0.63080    1.000
    N150     N        0.84560    0.22960    0.70740    1.000
    N151     N        0.04550    0.55100    0.18640    1.000
    N152     N        0.08880    0.84300    0.29750    1.000
    N153     N        0.77250    0.88540    0.28690    1.000
    N154     N        0.51190    0.52480    0.73720    1.000
    N155     N        0.58390    0.36820    0.17560    1.000
    N156     N        0.30640    0.21380    0.36490    1.000
    N157     N        0.49650    0.43640    0.44940    1.000
    N158     N        0.74390    0.94600    0.11830    1.000
    N159     N        0.56710    0.54920    0.69390    1.000
    N160     N        0.81170    0.85780    0.75100    1.000
    N161     N        0.00860    0.72880    0.15630    1.000
    N162     N        0.16320    0.55200    0.93930    1.000
    N163     N        0.48810    0.47520    0.26280    1.000
    N164     N        0.26500    0.04420    0.57750    1.000
    N165     N        0.60780    0.95180    0.99570    1.000
    N166     N        0.32920    0.04460    0.01080    1.000
    N167     N        0.15440    0.77040    0.29260    1.000
    N168     N        0.80780    0.20160    0.17510    1.000
    N169     N        0.01290    0.52480    0.23720    1.000
    N170     N        0.00750    0.18100    0.74160    1.000
    N171     N        0.38400    0.22960    0.20740    1.000
    N172     N        0.64820    0.78240    0.25210    1.000
    N173     N        0.72020    0.72880    0.65630    1.000
    N174     N        0.49340    0.56700    0.23900    1.000
    N175     N        0.11160    0.89720    0.13080    1.000
    N176     N        0.25630    0.81300    0.41570    1.000
    N177     N        0.99140    0.27120    0.84370    1.000
    N178     N        0.94250    0.04960    0.86390    1.000
    N179     N        0.21020    0.74860    0.85740    1.000
    N180     N        0.16010    0.91500    0.37690    1.000
    N181     N        0.73600    0.11900    0.49100    1.000
    N182     N        0.59730    0.69600    0.19960    1.000
    N183     N        0.81610    0.29260    0.74600    1.000
    N184     N        0.77660    0.16040    0.62980    1.000
    N185     N        0.25610    0.05400    0.88170    1.000
    N186     N        0.14170    0.89840    0.61380    1.000
    N187     N        0.88320    0.01300    0.83620    1.000
    N188     N        0.86730    0.02580    0.57800    1.000
    N189     N        0.44430    0.25460    0.95800    1.000
    N190     N        0.84150    0.97420    0.92200    1.000
    N191     N        0.42820    0.45080    0.87600    1.000
    N192     N        0.66630    0.86440    0.07300    1.000
    N193     N        0.38300    0.11900    0.99100    1.000
    N194     N        0.60620    0.79840    0.32490    1.000
    N195     N        0.42600    0.26680    0.80180    1.000
    N196     N        0.04610    0.85780    0.25100    1.000
    N197     N        0.97740    0.54920    0.62400    1.000
    N198     N        0.61600    0.77040    0.79260    1.000
    N199     N        0.24510    0.08500    0.12310    1.000
    N200     N        0.17820    0.62520    0.74220    1.000
    N201     N        0.48340    0.66680    0.83890    1.000
    N202     N        0.10710    0.04960    0.36390    1.000
    N203     N        0.91120    0.15700    0.70250    1.000
    N204     N        0.75670    0.89840    0.11380    1.000
    N205     N        0.85830    0.10160    0.38620    1.000
    N206     N        0.54530    0.41260    0.56050    1.000
    N207     N        0.38880    0.55200    0.43930    1.000
    N208     N        0.38380    0.16040    0.12980    1.000
    N209     N        0.97300    0.53100    0.67730    1.000
    N210     N        0.17350    0.18100    0.24160    1.000
    N211     N        0.21570    0.63180    0.32440    1.000
    N212     N        0.86730    0.41260    0.06050    1.000
    N213     N        0.05810    0.90900    0.75670    1.000
    N214     N        0.22080    0.95580    0.92250    1.000
    N215     N        0.67080    0.95540    0.98920    1.000
    N216     N        0.06010    0.56360    0.05060    1.000
    N217     N        0.57400    0.73320    0.19820    1.000
    N218     N        0.46100    0.53240    0.47020    1.000
    N219     N        0.11290    0.88540    0.78690    1.000
    N220     N        0.99250    0.81900    0.25840    1.000
    N221     N        0.88710    0.11460    0.21310    1.000
    N222     N        0.89430    0.42700    0.69270    1.000
    N223     N        0.13420    0.78240    0.75210    1.000
    N224     N        0.47650    0.29260    0.24600    1.000
    N225     N        0.09870    0.69600    0.69960    1.000
    N226     N        0.50350    0.77000    0.34290    1.000
    N227     N        0.86580    0.21760    0.24790    1.000
    N228     N        0.52350    0.70740    0.75400    1.000
    O1       O        0.56900    0.14900    0.87300    1.000
    O2       O        0.66000    0.13500    0.71130    1.000
    O3       O        0.38370    0.06580    0.75920    1.000
    O4       O        0.42370    0.08140    0.36330    1.000
    O5       O        0.59740    0.15800    0.77350    1.000
    O6       O        0.43100    0.85100    0.12700    1.000
    O7       O        0.63300    0.03020    0.65290    1.000
    O8       O        0.43200    0.93580    0.19840    1.000
    O9       O        0.42000    0.85100    0.62700    1.000
    O10      O        0.25250    0.89880    0.79690    1.000
    O11      O        0.47500    0.13500    0.21130    1.000
    O12      O        0.48790    0.90280    0.58010    1.000
    O13      O        0.63210    0.11540    0.22370    1.000
    O14      O        0.43940    0.84200    0.72650    1.000
    O15      O        0.48330    0.11540    0.72370    1.000
    O16      O        0.58000    0.14900    0.37300    1.000
    O17      O        0.58630    0.95700    0.34450    1.000
    O18      O        0.65850    0.00960    0.79420    1.000
    O19      O        0.68570    0.09260    0.76360    1.000
    O20      O        0.31250    0.98300    0.69000    1.000
    O21      O        0.74750    0.10120    0.20310    1.000
    O22      O        0.61630    0.93420    0.24080    1.000
    O23      O        0.54540    0.01800    0.59670    1.000
    O24      O        0.64890    0.99040    0.70580    1.000
    O25      O        0.36700    0.96980    0.34710    1.000
    O26      O        0.55960    0.98980    0.20680    1.000
    O27      O        0.50550    0.86260    0.18720    1.000
    O28      O        0.35110    0.00960    0.29420    1.000
    O29      O        0.67050    0.98300    0.19000    1.000
    O30      O        0.54550    0.10100    0.66330    1.000
    O31      O        0.48990    0.97660    0.64820    1.000
    O32      O        0.51670    0.88460    0.27630    1.000
    O33      O        0.51210    0.09720    0.41990    1.000
    O34      O        0.48670    0.97660    0.14820    1.000
    O35      O        0.56980    0.01020    0.29320    1.000
    O36      O        0.51180    0.83620    0.66740    1.000
    O37      O        0.40260    0.84200    0.22650    1.000
    O38      O        0.43910    0.09440    0.86390    1.000
    O39      O        0.49620    0.06420    0.30160    1.000
    O40      O        0.45460    0.98200    0.40330    1.000
    O41      O        0.31430    0.90740    0.23640    1.000
    O42      O        0.67560    0.16380    0.83260    1.000
    O43      O        0.41040    0.96140    0.58970    1.000
    O44      O        0.58960    0.03860    0.41030    1.000
    O45      O        0.34150    0.99040    0.20580    1.000
    O46      O        0.55860    0.04440    0.71410    1.000
    O47      O        0.31790    0.93420    0.74080    1.000
    O48      O        0.62930    0.04300    0.15550    1.000
    O49      O        0.68210    0.06580    0.25920    1.000
    O50      O        0.55100    0.96140    0.08970    1.000
    O51      O        0.47260    0.01800    0.09670    1.000
    O52      O        0.34230    0.91860    0.13670    1.000
    O53      O        0.57630    0.91860    0.63670    1.000
    O54      O        0.45450    0.89900    0.33670    1.000
    O55      O        0.65530    0.09440    0.36390    1.000
    O56      O        0.51420    0.95560    0.78590    1.000
    O57      O        0.41490    0.90280    0.08010    1.000
    O58      O        0.56800    0.06420    0.80160    1.000
    O59      O        0.44040    0.01020    0.79320    1.000
    O60      O        0.64290    0.13740    0.31280    1.000
    O61      O        0.39720    0.03020    0.15290    1.000
    O62      O        0.65770    0.08140    0.86330    1.000
    O63      O        0.34470    0.90560    0.63610    1.000
    O64      O        0.68750    0.01700    0.31000    1.000
    O65      O        0.58510    0.09720    0.91990    1.000
    O66      O        0.51330    0.02340    0.85180    1.000
    O67      O        0.52740    0.98200    0.90330    1.000
    O68      O        0.44140    0.95560    0.28590    1.000
    O69      O        0.36790    0.88460    0.77630    1.000
    O70      O        0.51010    0.02340    0.35180    1.000
    O71      O        0.35370    0.10120    0.70310    1.000
    O72      O        0.43020    0.98980    0.70680    1.000
    O73      O        0.48820    0.16380    0.33260    1.000
    O74      O        0.56060    0.15800    0.27350    1.000
    O75      O        0.56090    0.90560    0.13610    1.000
    O76      O        0.49450    0.13740    0.81280    1.000
    O77      O        0.64630    0.89880    0.29690    1.000
    O78      O        0.44900    0.03860    0.91030    1.000
    O79      O        0.32950    0.01700    0.81000    1.000
    O80      O        0.60280    0.96980    0.84710    1.000
    O81      O        0.35710    0.86260    0.68720    1.000
    O82      O        0.55550    0.10100    0.16330    1.000
    O83      O        0.48580    0.04440    0.21410    1.000
    O84      O        0.34000    0.86500    0.28870    1.000
    O85      O        0.37070    0.95700    0.84450    1.000
    O86      O        0.40690    0.09260    0.26360    1.000
    O87      O        0.32440    0.83620    0.16740    1.000
    O88      O        0.52500    0.86500    0.78870    1.000
    O89      O        0.50380    0.93580    0.69840    1.000
    O90      O        0.41370    0.04300    0.65550    1.000
    O91      O        0.44450    0.89900    0.83670    1.000
    O92      O        0.59310    0.90740    0.73640    1.000
