# CIF file generated by openbabel 3.1.0, see https://openbabel.org
data_I
_chemical_name_common 'image0'
_cell_length_a 10.596
_cell_length_b 10.295
_cell_length_c 6.141
_cell_angle_alpha 90
_cell_angle_beta 114.67
_cell_angle_gamma 90
_space_group_name_H-M_alt 'P 1'
_space_group_name_Hall 'P 1'
loop_
    _symmetry_equiv_pos_as_xyz
    x,y,z
loop_
    _atom_site_label
    _atom_site_type_symbol
    _atom_site_fract_x
    _atom_site_fract_y
    _atom_site_fract_z
    _atom_site_occupancy
    C1       C        0.31800    0.21290    0.54500    1.000
    H1       H        0.39310    0.27040    0.55940    1.000
    H2       H        0.33770    0.17620    0.70170    1.000
    N1       N        0.30330    0.10880    0.37300    1.000
    H3       H        0.28380    0.14300    0.22750    1.000
    H4       H        0.23340    0.05530    0.36050    1.000
    C2       C        0.81800    0.71290    0.54500    1.000
    H5       H        0.89310    0.77040    0.55940    1.000
    H6       H        0.83770    0.67620    0.70170    1.000
    N2       N        0.80330    0.60880    0.37300    1.000
    H7       H        0.78380    0.64300    0.22750    1.000
    H8       H        0.73340    0.55530    0.36050    1.000
    C3       C        0.68200    0.21290    0.95500    1.000
    H9       H        0.60690    0.27040    0.94060    1.000
    H10      H        0.66230    0.17620    0.79830    1.000
    N3       N        0.69670    0.10880    0.12700    1.000
    H11      H        0.71620    0.14300    0.27250    1.000
    H12      H        0.76660    0.05530    0.13950    1.000
    C4       C        0.18200    0.71290    0.95500    1.000
    H13      H        0.10690    0.77040    0.94060    1.000
    H14      H        0.16230    0.67620    0.79830    1.000
    N4       N        0.19670    0.60880    0.12700    1.000
    H15      H        0.21620    0.64300    0.27250    1.000
    H16      H        0.26660    0.55530    0.13950    1.000
    C5       C        0.68200    0.78710    0.45500    1.000
    H17      H        0.60690    0.72960    0.44060    1.000
    H18      H        0.66230    0.82380    0.29830    1.000
    N5       N        0.69670    0.89120    0.62700    1.000
    H19      H        0.71620    0.85700    0.77250    1.000
    H20      H        0.76660    0.94470    0.63950    1.000
    C6       C        0.18200    0.28710    0.45500    1.000
    H21      H        0.10690    0.22960    0.44060    1.000
    H22      H        0.16230    0.32380    0.29830    1.000
    N6       N        0.19670    0.39120    0.62700    1.000
    H23      H        0.21620    0.35700    0.77250    1.000
    H24      H        0.26660    0.44470    0.63950    1.000
    C7       C        0.31800    0.78710    0.04500    1.000
    H25      H        0.39310    0.72960    0.05940    1.000
    H26      H        0.33770    0.82380    0.20170    1.000
    N7       N        0.30330    0.89120    0.87300    1.000
    H27      H        0.28380    0.85700    0.72750    1.000
    H28      H        0.23340    0.94470    0.86050    1.000
    C8       C        0.81800    0.28710    0.04500    1.000
    H29      H        0.89310    0.22960    0.05940    1.000
    H30      H        0.83770    0.32380    0.20170    1.000
    N8       N        0.80330    0.39120    0.87300    1.000
    H31      H        0.78380    0.35700    0.72750    1.000
    H32      H        0.73340    0.44470    0.86050    1.000
    Ag1      Ag       0.50000    0.00000    0.50000    1.000
    Ag2      Ag       0.00000    0.50000    0.50000    1.000
    Ag3      Ag       0.50000    0.00000    0.00000    1.000
    Ag4      Ag       0.00000    0.50000    0.00000    1.000
