# CIF file generated by openbabel 3.1.0, see https://openbabel.org
data_I
_chemical_name_common 'image0'
_cell_length_a 41.587
_cell_length_b 17.465
_cell_length_c 17.9499
_cell_angle_alpha 90
_cell_angle_beta 90
_cell_angle_gamma 90
_space_group_name_H-M_alt 'P 1'
_space_group_name_Hall 'P 1'
loop_
    _symmetry_equiv_pos_as_xyz
    x,y,z
loop_
    _atom_site_label
    _atom_site_type_symbol
    _atom_site_fract_x
    _atom_site_fract_y
    _atom_site_fract_z
    _atom_site_occupancy
    C1       C        0.19142    0.48490    0.11720    1.000
    C2       C        0.16475    0.48380    0.17380    1.000
    C3       C        0.15540    0.41770    0.20850    1.000
    H1       H        0.16620    0.37230    0.19810    1.000
    C4       C        0.12995    0.41700    0.25920    1.000
    H2       H        0.12420    0.37190    0.28320    1.000
    C5       C        0.11332    0.48400    0.27340    1.000
    C6       C        0.12292    0.55040    0.23800    1.000
    H3       H        0.11220    0.59600    0.24820    1.000
    C7       C        0.14784    0.55030    0.18820    1.000
    H4       H        0.15340    0.59540    0.16390    1.000
    C8       C        0.08476    0.48360    0.32450    1.000
    C9       C        0.03034    0.48940    0.41780    1.000
    C10      C        0.08380    0.44220    0.39060    1.000
    H5       H        0.10170    0.41370    0.40510    1.000
    C11      C        0.05632    0.44270    0.43580    1.000
    H6       H        0.05540    0.41180    0.47790    1.000
    C12      C        0.03050    0.52970    0.35090    1.000
    H7       H        0.01250    0.55750    0.33640    1.000
    C13      C        0.05762    0.52810    0.30610    1.000
    H8       H        0.05790    0.55710    0.26260    1.000
    C14      C        0.33900    0.38540    0.94100    1.000
    H9       H        0.33130    0.42350    0.90960    1.000
    C15      C        0.36850    0.35160    0.92490    1.000
    H10      H        0.37980    0.36550    0.88230    1.000
    C16      C        0.36480    0.27930    0.03800    1.000
    H11      H        0.37430    0.24530    0.07130    1.000
    C17      C        0.33482    0.31140    0.05430    1.000
    H12      H        0.32420    0.29870    0.09810    1.000
    C18      C        0.41590    0.23120    0.88150    1.000
    H13      H        0.39910    0.23130    0.84740    1.000
    C19      C        0.44527    0.19690    0.86300    1.000
    H14      H        0.44890    0.18110    0.81420    1.000
    C20      C        0.46455    0.22110    0.98770    1.000
    H15      H        0.48060    0.21790    0.02380    1.000
    C21      C        0.43623    0.26070    0.00470    1.000
    H16      H        0.43410    0.28620    0.05000    1.000
    C22      C        0.53680    0.99280    0.79010    1.000
    H17      H        0.52140    0.99710    0.75270    1.000
    C23      C        0.56460    0.95130    0.77380    1.000
    H18      H        0.56800    0.93110    0.72650    1.000
    C24      C        0.58593    0.98510    0.89520    1.000
    H19      H        0.60350    0.98880    0.92720    1.000
    C25      C        0.55683    0.02330    0.90920    1.000
    H20      H        0.55450    0.04720    0.95520    1.000
    C26      C        0.64485    0.90530    0.85750    1.000
    H21      H        0.64500    0.94030    0.89650    1.000
    C27      C        0.67284    0.86070    0.84250    1.000
    H22      H        0.69140    0.86590    0.87100    1.000
    C28      C        0.64863    0.81590    0.72810    1.000
    H23      H        0.65140    0.79220    0.68220    1.000
    C29      C        0.62083    0.86070    0.74280    1.000
    H24      H        0.60520    0.86590    0.70600    1.000
    C30      C        0.28808    0.39630    0.01840    1.000
    C31      C        0.32066    0.36400    0.00270    1.000
    C32      C        0.38069    0.29820    0.97180    1.000
    C33      C        0.41170    0.26150    0.95410    1.000
    C34      C        0.46978    0.18570    0.91820    1.000
    C35      C        0.53041    0.02810    0.85760    1.000
    C36      C        0.58688    0.94100    0.82950    1.000
    C37      C        0.23950    0.47750    0.28060    1.000
    C38      C        0.27590    0.54950    0.19850    1.000
    C39      C        0.23050    0.61340    0.27070    1.000
    Cd1      Cd       0.24200    0.33341    0.14948    1.000
    O1       O        0.27905    0.40230    0.08560    1.000
    O2       O        0.27145    0.41800    0.96540    1.000
    O3       O        0.20642    0.42360    0.10260    1.000
    O4       O        0.19724    0.54430    0.08340    1.000
    C40      C        0.61646    0.89750    0.81200    1.000
    C41      C        0.67135    0.80850    0.78310    1.000
    C42      C        0.70040    0.75850    0.76710    1.000
    O5       O        0.70378    0.73150    0.70660    1.000
    O6       O        0.71970    0.74910    0.81980    1.000
    C43      C        0.06310    0.42130    0.32820    1.000
    H25      H        0.06690    0.37750    0.30010    1.000
    C44      C        0.03590    0.42520    0.37360    1.000
    H26      H        0.02150    0.38460    0.37440    1.000
    C45      C        0.05350    0.54730    0.41820    1.000
    H27      H        0.05090    0.58850    0.45060    1.000
    C46      C        0.08010    0.54540    0.37180    1.000
    H28      H        0.09490    0.58540    0.37240    1.000
    C47      C        0.34590    0.37550    0.05060    1.000
    H29      H        0.34330    0.40420    0.09390    1.000
    C48      C        0.37540    0.34350    0.03310    1.000
    H30      H        0.39270    0.35330    0.06460    1.000
    C49      C        0.35480    0.29080    0.92120    1.000
    H31      H        0.35770    0.26370    0.87710    1.000
    C50      C        0.32532    0.32300    0.93630    1.000
    H32      H        0.30850    0.31770    0.90260    1.000
    C51      C        0.44889    0.15310    0.97040    1.000
    H33      H        0.45410    0.10730    0.99400    1.000
    C52      C        0.41912    0.18800    0.98420    1.000
    H34      H        0.40400    0.16280    0.01340    1.000
    C53      C        0.43541    0.29620    0.90990    1.000
    H35      H        0.43290    0.34720    0.89600    1.000
    C54      C        0.46286    0.25620    0.88600    1.000
    H36      H        0.47620    0.27660    0.84940    1.000
    C55      C        0.56000    0.91170    0.87330    1.000
    H37      H        0.56180    0.86310    0.89410    1.000
    C56      C        0.53160    0.95340    0.88570    1.000
    H38      H        0.51430    0.93230    0.91130    1.000
    C57      C        0.55140    0.05140    0.80300    1.000
    H39      H        0.54910    0.09860    0.77960    1.000
    C58      C        0.57697    0.00000    0.78330    1.000
    H40      H        0.58730    0.00660    0.73780    1.000
    C59      C        0.65312    0.80300    0.85090    1.000
    H41      H        0.66050    0.76920    0.88710    1.000
    C60      C        0.62622    0.84590    0.86750    1.000
    H42      H        0.61530    0.84090    0.91250    1.000
    C61      C        0.62732    0.89180    0.73800    1.000
    H43      H        0.61650    0.91610    0.69940    1.000
    C62      C        0.65402    0.84990    0.72470    1.000
    H44      H        0.66170    0.84720    0.67620    1.000
    C63      C        0.30858    0.51510    0.61720    1.000
    C64      C        0.33525    0.51620    0.67380    1.000
    C65      C        0.34460    0.58230    0.70850    1.000
    H45      H        0.33380    0.62770    0.69810    1.000
    C66      C        0.37005    0.58300    0.75920    1.000
    H46      H        0.37580    0.62810    0.78320    1.000
    C67      C        0.38668    0.51600    0.77340    1.000
    C68      C        0.37708    0.44960    0.73800    1.000
    H47      H        0.38780    0.40400    0.74820    1.000
    C69      C        0.35216    0.44970    0.68820    1.000
    H48      H        0.34660    0.40460    0.66390    1.000
    C70      C        0.41524    0.51640    0.82450    1.000
    C71      C        0.46966    0.51060    0.91780    1.000
    C72      C        0.41620    0.55780    0.89060    1.000
    H49      H        0.39830    0.58630    0.90510    1.000
    C73      C        0.44368    0.55730    0.93580    1.000
    H50      H        0.44460    0.58820    0.97790    1.000
    C74      C        0.46950    0.47030    0.85090    1.000
    H51      H        0.48750    0.44250    0.83640    1.000
    C75      C        0.44238    0.47190    0.80610    1.000
    H52      H        0.44210    0.44290    0.76260    1.000
    C76      C        0.16100    0.61460    0.44100    1.000
    H53      H        0.16870    0.57650    0.40960    1.000
    C77      C        0.13150    0.64840    0.42490    1.000
    H54      H        0.12020    0.63450    0.38230    1.000
    C78      C        0.13520    0.72070    0.53800    1.000
    H55      H        0.12570    0.75470    0.57130    1.000
    C79      C        0.16518    0.68860    0.55430    1.000
    H56      H        0.17580    0.70130    0.59810    1.000
    C80      C        0.08410    0.76880    0.38150    1.000
    H57      H        0.10090    0.76870    0.34740    1.000
    C81      C        0.05473    0.80310    0.36300    1.000
    H58      H        0.05110    0.81890    0.31420    1.000
    C82      C        0.03545    0.77890    0.48770    1.000
    H59      H        0.01940    0.78210    0.52380    1.000
    C83      C        0.06377    0.73930    0.50470    1.000
    H60      H        0.06590    0.71380    0.55000    1.000
    C84      C        0.96320    0.00720    0.29010    1.000
    H61      H        0.97860    0.00290    0.25270    1.000
    C85      C        0.93540    0.04870    0.27380    1.000
    H62      H        0.93200    0.06890    0.22650    1.000
    C86      C        0.91407    0.01490    0.39520    1.000
    H63      H        0.89650    0.01120    0.42720    1.000
    C87      C        0.94317    0.97670    0.40920    1.000
    H64      H        0.94550    0.95280    0.45520    1.000
    C88      C        0.85515    0.09470    0.35750    1.000
    H65      H        0.85500    0.05970    0.39650    1.000
    C89      C        0.82716    0.13930    0.34250    1.000
    H66      H        0.80860    0.13410    0.37100    1.000
    C90      C        0.85137    0.18410    0.22810    1.000
    H67      H        0.84860    0.20780    0.18220    1.000
    C91      C        0.87917    0.13930    0.24280    1.000
    H68      H        0.89480    0.13410    0.20600    1.000
    C92      C        0.21192    0.60370    0.51840    1.000
    C93      C        0.17934    0.63600    0.50270    1.000
    C94      C        0.11931    0.70180    0.47180    1.000
    C95      C        0.08830    0.73850    0.45410    1.000
    C96      C        0.03022    0.81430    0.41820    1.000
    C97      C        0.96959    0.97190    0.35760    1.000
    C98      C        0.91312    0.05900    0.32950    1.000
    C99      C        0.26050    0.52250    0.78060    1.000
    C100     C        0.22410    0.45050    0.69850    1.000
    C101     C        0.26950    0.38660    0.77070    1.000
    Cd2      Cd       0.25800    0.66659    0.64948    1.000
    O7       O        0.22095    0.59770    0.58560    1.000
    O8       O        0.22855    0.58200    0.46540    1.000
    O9       O        0.29358    0.57640    0.60260    1.000
    O10      O        0.30276    0.45570    0.58340    1.000
    C102     C        0.88354    0.10250    0.31200    1.000
    C103     C        0.82865    0.19150    0.28310    1.000
    C104     C        0.79960    0.24150    0.26710    1.000
    O11      O        0.79622    0.26850    0.20660    1.000
    O12      O        0.78030    0.25090    0.31980    1.000
    C105     C        0.43690    0.57870    0.82820    1.000
    H69      H        0.43310    0.62250    0.80010    1.000
    C106     C        0.46410    0.57480    0.87360    1.000
    H70      H        0.47850    0.61540    0.87440    1.000
    C107     C        0.44650    0.45270    0.91820    1.000
    H71      H        0.44910    0.41150    0.95060    1.000
    C108     C        0.41990    0.45460    0.87180    1.000
    H72      H        0.40510    0.41460    0.87240    1.000
    C109     C        0.15410    0.62450    0.55060    1.000
    H73      H        0.15670    0.59580    0.59390    1.000
    C110     C        0.12460    0.65650    0.53310    1.000
    H74      H        0.10730    0.64670    0.56460    1.000
    C111     C        0.14520    0.70920    0.42120    1.000
    H75      H        0.14230    0.73630    0.37710    1.000
    C112     C        0.17468    0.67700    0.43630    1.000
    H76      H        0.19150    0.68230    0.40260    1.000
    C113     C        0.05111    0.84690    0.47040    1.000
    H77      H        0.04590    0.89270    0.49400    1.000
    C114     C        0.08088    0.81200    0.48420    1.000
    H78      H        0.09600    0.83720    0.51340    1.000
    C115     C        0.06459    0.70380    0.40990    1.000
    H79      H        0.06710    0.65280    0.39600    1.000
    C116     C        0.03714    0.74380    0.38600    1.000
    H80      H        0.02380    0.72340    0.34940    1.000
    C117     C        0.94000    0.08830    0.37330    1.000
    H81      H        0.93820    0.13690    0.39410    1.000
    C118     C        0.96840    0.04660    0.38570    1.000
    H82      H        0.98570    0.06770    0.41130    1.000
    C119     C        0.94860    0.94860    0.30300    1.000
    H83      H        0.95090    0.90140    0.27960    1.000
    C120     C        0.92303    0.00000    0.28330    1.000
    H84      H        0.91270    0.99340    0.23780    1.000
    C121     C        0.84688    0.19700    0.35090    1.000
    H85      H        0.83950    0.23080    0.38710    1.000
    C122     C        0.87378    0.15410    0.36750    1.000
    H86      H        0.88470    0.15910    0.41250    1.000
    C123     C        0.87268    0.10820    0.23800    1.000
    H87      H        0.88350    0.08390    0.19940    1.000
    C124     C        0.84598    0.15010    0.22470    1.000
    H88      H        0.83830    0.15280    0.17620    1.000
    C125     C        0.30858    0.48490    0.38280    1.000
    C126     C        0.33525    0.48380    0.32620    1.000
    C127     C        0.34460    0.41770    0.29150    1.000
    H89      H        0.33380    0.37230    0.30190    1.000
    C128     C        0.37005    0.41700    0.24080    1.000
    H90      H        0.37580    0.37190    0.21680    1.000
    C129     C        0.38668    0.48400    0.22660    1.000
    C130     C        0.37708    0.55040    0.26200    1.000
    H91      H        0.38780    0.59600    0.25180    1.000
    C131     C        0.35216    0.55030    0.31180    1.000
    H92      H        0.34660    0.59540    0.33610    1.000
    C132     C        0.41524    0.48360    0.17550    1.000
    C133     C        0.46966    0.48940    0.08220    1.000
    C134     C        0.41620    0.44220    0.10940    1.000
    H93      H        0.39830    0.41370    0.09490    1.000
    C135     C        0.44368    0.44270    0.06420    1.000
    H94      H        0.44460    0.41180    0.02210    1.000
    C136     C        0.46950    0.52970    0.14910    1.000
    H95      H        0.48750    0.55750    0.16360    1.000
    C137     C        0.44238    0.52810    0.19390    1.000
    H96      H        0.44210    0.55710    0.23740    1.000
    C138     C        0.16100    0.38540    0.55900    1.000
    H97      H        0.16870    0.42350    0.59040    1.000
    C139     C        0.13150    0.35160    0.57510    1.000
    H98      H        0.12020    0.36550    0.61770    1.000
    C140     C        0.13520    0.27930    0.46200    1.000
    H99      H        0.12570    0.24530    0.42870    1.000
    C141     C        0.16518    0.31140    0.44570    1.000
    H100     H        0.17580    0.29870    0.40190    1.000
    C142     C        0.08410    0.23120    0.61850    1.000
    H101     H        0.10090    0.23130    0.65260    1.000
    C143     C        0.05473    0.19690    0.63700    1.000
    H102     H        0.05110    0.18110    0.68580    1.000
    C144     C        0.03545    0.22110    0.51230    1.000
    H103     H        0.01940    0.21790    0.47620    1.000
    C145     C        0.06377    0.26070    0.49530    1.000
    H104     H        0.06590    0.28620    0.45000    1.000
    C146     C        0.96320    0.99280    0.70990    1.000
    H105     H        0.97860    0.99710    0.74730    1.000
    C147     C        0.93540    0.95130    0.72620    1.000
    H106     H        0.93200    0.93110    0.77350    1.000
    C148     C        0.91407    0.98510    0.60480    1.000
    H107     H        0.89650    0.98880    0.57280    1.000
    C149     C        0.94317    0.02330    0.59080    1.000
    H108     H        0.94550    0.04720    0.54480    1.000
    C150     C        0.85515    0.90530    0.64250    1.000
    H109     H        0.85500    0.94030    0.60350    1.000
    C151     C        0.82716    0.86070    0.65750    1.000
    H110     H        0.80860    0.86590    0.62900    1.000
    C152     C        0.85137    0.81590    0.77190    1.000
    H111     H        0.84860    0.79220    0.81780    1.000
    C153     C        0.87917    0.86070    0.75720    1.000
    H112     H        0.89480    0.86590    0.79400    1.000
    C154     C        0.21192    0.39630    0.48160    1.000
    C155     C        0.17934    0.36400    0.49730    1.000
    C156     C        0.11931    0.29820    0.52820    1.000
    C157     C        0.08830    0.26150    0.54590    1.000
    C158     C        0.03022    0.18570    0.58180    1.000
    C159     C        0.96959    0.02810    0.64240    1.000
    C160     C        0.91312    0.94100    0.67050    1.000
    C161     C        0.26050    0.47750    0.21940    1.000
    C162     C        0.22410    0.54950    0.30150    1.000
    C163     C        0.26950    0.61340    0.22930    1.000
    Cd3      Cd       0.25800    0.33341    0.35052    1.000
    O13      O        0.22095    0.40230    0.41440    1.000
    O14      O        0.22855    0.41800    0.53460    1.000
    O15      O        0.29358    0.42360    0.39740    1.000
    O16      O        0.30276    0.54430    0.41660    1.000
    C164     C        0.88354    0.89750    0.68800    1.000
    C165     C        0.82865    0.80850    0.71690    1.000
    C166     C        0.79960    0.75850    0.73290    1.000
    O17      O        0.79622    0.73150    0.79340    1.000
    O18      O        0.78030    0.74910    0.68020    1.000
    C167     C        0.43690    0.42130    0.17180    1.000
    H113     H        0.43310    0.37750    0.19990    1.000
    C168     C        0.46410    0.42520    0.12640    1.000
    H114     H        0.47850    0.38460    0.12560    1.000
    C169     C        0.44650    0.54730    0.08180    1.000
    H115     H        0.44910    0.58850    0.04940    1.000
    C170     C        0.41990    0.54540    0.12820    1.000
    H116     H        0.40510    0.58540    0.12760    1.000
    C171     C        0.15410    0.37550    0.44940    1.000
    H117     H        0.15670    0.40420    0.40610    1.000
    C172     C        0.12460    0.34350    0.46690    1.000
    H118     H        0.10730    0.35330    0.43540    1.000
    C173     C        0.14520    0.29080    0.57880    1.000
    H119     H        0.14230    0.26370    0.62290    1.000
    C174     C        0.17468    0.32300    0.56370    1.000
    H120     H        0.19150    0.31770    0.59740    1.000
    C175     C        0.05111    0.15310    0.52960    1.000
    H121     H        0.04590    0.10730    0.50600    1.000
    C176     C        0.08088    0.18800    0.51580    1.000
    H122     H        0.09600    0.16280    0.48660    1.000
    C177     C        0.06459    0.29620    0.59010    1.000
    H123     H        0.06710    0.34720    0.60400    1.000
    C178     C        0.03714    0.25620    0.61400    1.000
    H124     H        0.02380    0.27660    0.65060    1.000
    C179     C        0.94000    0.91170    0.62670    1.000
    H125     H        0.93820    0.86310    0.60590    1.000
    C180     C        0.96840    0.95340    0.61430    1.000
    H126     H        0.98570    0.93230    0.58870    1.000
    C181     C        0.94860    0.05140    0.69700    1.000
    H127     H        0.95090    0.09860    0.72040    1.000
    C182     C        0.92303    0.00000    0.71670    1.000
    H128     H        0.91270    0.00660    0.76220    1.000
    C183     C        0.84688    0.80300    0.64910    1.000
    H129     H        0.83950    0.76920    0.61290    1.000
    C184     C        0.87378    0.84590    0.63250    1.000
    H130     H        0.88470    0.84090    0.58750    1.000
    C185     C        0.87268    0.89180    0.76200    1.000
    H131     H        0.88350    0.91610    0.80060    1.000
    C186     C        0.84598    0.84990    0.77530    1.000
    H132     H        0.83830    0.84720    0.82380    1.000
    C187     C        0.19142    0.51510    0.88280    1.000
    C188     C        0.16475    0.51620    0.82620    1.000
    C189     C        0.15540    0.58230    0.79150    1.000
    H133     H        0.16620    0.62770    0.80190    1.000
    C190     C        0.12995    0.58300    0.74080    1.000
    H134     H        0.12420    0.62810    0.71680    1.000
    C191     C        0.11332    0.51600    0.72660    1.000
    C192     C        0.12292    0.44960    0.76200    1.000
    H135     H        0.11220    0.40400    0.75180    1.000
    C193     C        0.14784    0.44970    0.81180    1.000
    H136     H        0.15340    0.40460    0.83610    1.000
    C194     C        0.08476    0.51640    0.67550    1.000
    C195     C        0.03034    0.51060    0.58220    1.000
    C196     C        0.08380    0.55780    0.60940    1.000
    H137     H        0.10170    0.58630    0.59490    1.000
    C197     C        0.05632    0.55730    0.56420    1.000
    H138     H        0.05540    0.58820    0.52210    1.000
    C198     C        0.03050    0.47030    0.64910    1.000
    H139     H        0.01250    0.44250    0.66360    1.000
    C199     C        0.05762    0.47190    0.69390    1.000
    H140     H        0.05790    0.44290    0.73740    1.000
    C200     C        0.33900    0.61460    0.05900    1.000
    H141     H        0.33130    0.57650    0.09040    1.000
    C201     C        0.36850    0.64840    0.07510    1.000
    H142     H        0.37980    0.63450    0.11770    1.000
    C202     C        0.36480    0.72070    0.96200    1.000
    H143     H        0.37430    0.75470    0.92870    1.000
    C203     C        0.33482    0.68860    0.94570    1.000
    H144     H        0.32420    0.70130    0.90190    1.000
    C204     C        0.41590    0.76880    0.11850    1.000
    H145     H        0.39910    0.76870    0.15260    1.000
    C205     C        0.44527    0.80310    0.13700    1.000
    H146     H        0.44890    0.81890    0.18580    1.000
    C206     C        0.46455    0.77890    0.01230    1.000
    H147     H        0.48060    0.78210    0.97620    1.000
    C207     C        0.43623    0.73930    0.99530    1.000
    H148     H        0.43410    0.71380    0.95000    1.000
    C208     C        0.53680    0.00720    0.20990    1.000
    H149     H        0.52140    0.00290    0.24730    1.000
    C209     C        0.56460    0.04870    0.22620    1.000
    H150     H        0.56800    0.06890    0.27350    1.000
    C210     C        0.58593    0.01490    0.10480    1.000
    H151     H        0.60350    0.01120    0.07280    1.000
    C211     C        0.55683    0.97670    0.09080    1.000
    H152     H        0.55450    0.95280    0.04480    1.000
    C212     C        0.64485    0.09470    0.14250    1.000
    H153     H        0.64500    0.05970    0.10350    1.000
    C213     C        0.67284    0.13930    0.15750    1.000
    H154     H        0.69140    0.13410    0.12900    1.000
    C214     C        0.64863    0.18410    0.27190    1.000
    H155     H        0.65140    0.20780    0.31780    1.000
    C215     C        0.62083    0.13930    0.25720    1.000
    H156     H        0.60520    0.13410    0.29400    1.000
    C216     C        0.28808    0.60370    0.98160    1.000
    C217     C        0.32066    0.63600    0.99730    1.000
    C218     C        0.38069    0.70180    0.02820    1.000
    C219     C        0.41170    0.73850    0.04590    1.000
    C220     C        0.46978    0.81430    0.08180    1.000
    C221     C        0.53041    0.97190    0.14240    1.000
    C222     C        0.58688    0.05900    0.17050    1.000
    C223     C        0.23950    0.52250    0.71940    1.000
    C224     C        0.27590    0.45050    0.80150    1.000
    C225     C        0.23050    0.38660    0.72930    1.000
    Cd4      Cd       0.24200    0.66659    0.85052    1.000
    O19      O        0.27905    0.59770    0.91440    1.000
    O20      O        0.27145    0.58200    0.03460    1.000
    O21      O        0.20642    0.57640    0.89740    1.000
    O22      O        0.19724    0.45570    0.91660    1.000
    C226     C        0.61646    0.10250    0.18800    1.000
    C227     C        0.67135    0.19150    0.21690    1.000
    C228     C        0.70040    0.24150    0.23290    1.000
    O23      O        0.70378    0.26850    0.29340    1.000
    O24      O        0.71970    0.25090    0.18020    1.000
    C229     C        0.06310    0.57870    0.67180    1.000
    H157     H        0.06690    0.62250    0.69990    1.000
    C230     C        0.03590    0.57480    0.62640    1.000
    H158     H        0.02150    0.61540    0.62560    1.000
    C231     C        0.05350    0.45270    0.58180    1.000
    H159     H        0.05090    0.41150    0.54940    1.000
    C232     C        0.08010    0.45460    0.62820    1.000
    H160     H        0.09490    0.41460    0.62760    1.000
    C233     C        0.34590    0.62450    0.94940    1.000
    H161     H        0.34330    0.59580    0.90610    1.000
    C234     C        0.37540    0.65650    0.96690    1.000
    H162     H        0.39270    0.64670    0.93540    1.000
    C235     C        0.35480    0.70920    0.07880    1.000
    H163     H        0.35770    0.73630    0.12290    1.000
    C236     C        0.32532    0.67700    0.06370    1.000
    H164     H        0.30850    0.68230    0.09740    1.000
    C237     C        0.44889    0.84690    0.02960    1.000
    H165     H        0.45410    0.89270    0.00600    1.000
    C238     C        0.41912    0.81200    0.01580    1.000
    H166     H        0.40400    0.83720    0.98660    1.000
    C239     C        0.43541    0.70380    0.09010    1.000
    H167     H        0.43290    0.65280    0.10400    1.000
    C240     C        0.46286    0.74380    0.11400    1.000
    H168     H        0.47620    0.72340    0.15060    1.000
    C241     C        0.56000    0.08830    0.12670    1.000
    H169     H        0.56180    0.13690    0.10590    1.000
    C242     C        0.53160    0.04660    0.11430    1.000
    H170     H        0.51430    0.06770    0.08870    1.000
    C243     C        0.55140    0.94860    0.19700    1.000
    H171     H        0.54910    0.90140    0.22040    1.000
    C244     C        0.57697    0.00000    0.21670    1.000
    H172     H        0.58730    0.99340    0.26220    1.000
    C245     C        0.65312    0.19700    0.14910    1.000
    H173     H        0.66050    0.23080    0.11290    1.000
    C246     C        0.62622    0.15410    0.13250    1.000
    H174     H        0.61530    0.15910    0.08750    1.000
    C247     C        0.62732    0.10820    0.26200    1.000
    H175     H        0.61650    0.08390    0.30060    1.000
    C248     C        0.65402    0.15010    0.27530    1.000
    H176     H        0.66170    0.15280    0.32380    1.000
    C249     C        0.80858    0.51510    0.88280    1.000
    C250     C        0.83525    0.51620    0.82620    1.000
    C251     C        0.84460    0.58230    0.79150    1.000
    H177     H        0.83380    0.62770    0.80190    1.000
    C252     C        0.87005    0.58300    0.74080    1.000
    H178     H        0.87580    0.62810    0.71680    1.000
    C253     C        0.88668    0.51600    0.72660    1.000
    C254     C        0.87708    0.44960    0.76200    1.000
    H179     H        0.88780    0.40400    0.75180    1.000
    C255     C        0.85216    0.44970    0.81180    1.000
    H180     H        0.84660    0.40460    0.83610    1.000
    C256     C        0.91524    0.51640    0.67550    1.000
    C257     C        0.96966    0.51060    0.58220    1.000
    C258     C        0.91620    0.55780    0.60940    1.000
    H181     H        0.89830    0.58630    0.59490    1.000
    C259     C        0.94368    0.55730    0.56420    1.000
    H182     H        0.94460    0.58820    0.52210    1.000
    C260     C        0.96950    0.47030    0.64910    1.000
    H183     H        0.98750    0.44250    0.66360    1.000
    C261     C        0.94238    0.47190    0.69390    1.000
    H184     H        0.94210    0.44290    0.73740    1.000
    C262     C        0.66100    0.61460    0.05900    1.000
    H185     H        0.66870    0.57650    0.09040    1.000
    C263     C        0.63150    0.64840    0.07510    1.000
    H186     H        0.62020    0.63450    0.11770    1.000
    C264     C        0.63520    0.72070    0.96200    1.000
    H187     H        0.62570    0.75470    0.92870    1.000
    C265     C        0.66518    0.68860    0.94570    1.000
    H188     H        0.67580    0.70130    0.90190    1.000
    C266     C        0.58410    0.76880    0.11850    1.000
    H189     H        0.60090    0.76870    0.15260    1.000
    C267     C        0.55473    0.80310    0.13700    1.000
    H190     H        0.55110    0.81890    0.18580    1.000
    C268     C        0.53545    0.77890    0.01230    1.000
    H191     H        0.51940    0.78210    0.97620    1.000
    C269     C        0.56377    0.73930    0.99530    1.000
    H192     H        0.56590    0.71380    0.95000    1.000
    C270     C        0.46320    0.00720    0.20990    1.000
    H193     H        0.47860    0.00290    0.24730    1.000
    C271     C        0.43540    0.04870    0.22620    1.000
    H194     H        0.43200    0.06890    0.27350    1.000
    C272     C        0.41407    0.01490    0.10480    1.000
    H195     H        0.39650    0.01120    0.07280    1.000
    C273     C        0.44317    0.97670    0.09080    1.000
    H196     H        0.44550    0.95280    0.04480    1.000
    C274     C        0.35515    0.09470    0.14250    1.000
    H197     H        0.35500    0.05970    0.10350    1.000
    C275     C        0.32716    0.13930    0.15750    1.000
    H198     H        0.30860    0.13410    0.12900    1.000
    C276     C        0.35137    0.18410    0.27190    1.000
    H199     H        0.34860    0.20780    0.31780    1.000
    C277     C        0.37917    0.13930    0.25720    1.000
    H200     H        0.39480    0.13410    0.29400    1.000
    C278     C        0.71192    0.60370    0.98160    1.000
    C279     C        0.67934    0.63600    0.99730    1.000
    C280     C        0.61931    0.70180    0.02820    1.000
    C281     C        0.58830    0.73850    0.04590    1.000
    C282     C        0.53022    0.81430    0.08180    1.000
    C283     C        0.46959    0.97190    0.14240    1.000
    C284     C        0.41312    0.05900    0.17050    1.000
    C285     C        0.76050    0.52250    0.71940    1.000
    C286     C        0.72410    0.45050    0.80150    1.000
    C287     C        0.76950    0.38660    0.72930    1.000
    Cd5      Cd       0.75800    0.66659    0.85052    1.000
    O25      O        0.72095    0.59770    0.91440    1.000
    O26      O        0.72855    0.58200    0.03460    1.000
    O27      O        0.79358    0.57640    0.89740    1.000
    O28      O        0.80276    0.45570    0.91660    1.000
    C288     C        0.38354    0.10250    0.18800    1.000
    C289     C        0.32865    0.19150    0.21690    1.000
    C290     C        0.29960    0.24150    0.23290    1.000
    O29      O        0.29622    0.26850    0.29340    1.000
    O30      O        0.28030    0.25090    0.18020    1.000
    C291     C        0.93690    0.57870    0.67180    1.000
    H201     H        0.93310    0.62250    0.69990    1.000
    C292     C        0.96410    0.57480    0.62640    1.000
    H202     H        0.97850    0.61540    0.62560    1.000
    C293     C        0.94650    0.45270    0.58180    1.000
    H203     H        0.94910    0.41150    0.54940    1.000
    C294     C        0.91990    0.45460    0.62820    1.000
    H204     H        0.90510    0.41460    0.62760    1.000
    C295     C        0.65410    0.62450    0.94940    1.000
    H205     H        0.65670    0.59580    0.90610    1.000
    C296     C        0.62460    0.65650    0.96690    1.000
    H206     H        0.60730    0.64670    0.93540    1.000
    C297     C        0.64520    0.70920    0.07880    1.000
    H207     H        0.64230    0.73630    0.12290    1.000
    C298     C        0.67468    0.67700    0.06370    1.000
    H208     H        0.69150    0.68230    0.09740    1.000
    C299     C        0.55111    0.84690    0.02960    1.000
    H209     H        0.54590    0.89270    0.00600    1.000
    C300     C        0.58088    0.81200    0.01580    1.000
    H210     H        0.59600    0.83720    0.98660    1.000
    C301     C        0.56459    0.70380    0.09010    1.000
    H211     H        0.56710    0.65280    0.10400    1.000
    C302     C        0.53714    0.74380    0.11400    1.000
    H212     H        0.52380    0.72340    0.15060    1.000
    C303     C        0.44000    0.08830    0.12670    1.000
    H213     H        0.43820    0.13690    0.10590    1.000
    C304     C        0.46840    0.04660    0.11430    1.000
    H214     H        0.48570    0.06770    0.08870    1.000
    C305     C        0.44860    0.94860    0.19700    1.000
    H215     H        0.45090    0.90140    0.22040    1.000
    C306     C        0.42303    0.00000    0.21670    1.000
    H216     H        0.41270    0.99340    0.26220    1.000
    C307     C        0.34688    0.19700    0.14910    1.000
    H217     H        0.33950    0.23080    0.11290    1.000
    C308     C        0.37378    0.15410    0.13250    1.000
    H218     H        0.38470    0.15910    0.08750    1.000
    C309     C        0.37268    0.10820    0.26200    1.000
    H219     H        0.38350    0.08390    0.30060    1.000
    C310     C        0.34598    0.15010    0.27530    1.000
    H220     H        0.33830    0.15280    0.32380    1.000
    C311     C        0.69142    0.48490    0.38280    1.000
    C312     C        0.66475    0.48380    0.32620    1.000
    C313     C        0.65540    0.41770    0.29150    1.000
    H221     H        0.66620    0.37230    0.30190    1.000
    C314     C        0.62995    0.41700    0.24080    1.000
    H222     H        0.62420    0.37190    0.21680    1.000
    C315     C        0.61332    0.48400    0.22660    1.000
    C316     C        0.62292    0.55040    0.26200    1.000
    H223     H        0.61220    0.59600    0.25180    1.000
    C317     C        0.64784    0.55030    0.31180    1.000
    H224     H        0.65340    0.59540    0.33610    1.000
    C318     C        0.58476    0.48360    0.17550    1.000
    C319     C        0.53034    0.48940    0.08220    1.000
    C320     C        0.58380    0.44220    0.10940    1.000
    H225     H        0.60170    0.41370    0.09490    1.000
    C321     C        0.55632    0.44270    0.06420    1.000
    H226     H        0.55540    0.41180    0.02210    1.000
    C322     C        0.53050    0.52970    0.14910    1.000
    H227     H        0.51250    0.55750    0.16360    1.000
    C323     C        0.55762    0.52810    0.19390    1.000
    H228     H        0.55790    0.55710    0.23740    1.000
    C324     C        0.83900    0.38540    0.55900    1.000
    H229     H        0.83130    0.42350    0.59040    1.000
    C325     C        0.86850    0.35160    0.57510    1.000
    H230     H        0.87980    0.36550    0.61770    1.000
    C326     C        0.86480    0.27930    0.46200    1.000
    H231     H        0.87430    0.24530    0.42870    1.000
    C327     C        0.83482    0.31140    0.44570    1.000
    H232     H        0.82420    0.29870    0.40190    1.000
    C328     C        0.91590    0.23120    0.61850    1.000
    H233     H        0.89910    0.23130    0.65260    1.000
    C329     C        0.94527    0.19690    0.63700    1.000
    H234     H        0.94890    0.18110    0.68580    1.000
    C330     C        0.96455    0.22110    0.51230    1.000
    H235     H        0.98060    0.21790    0.47620    1.000
    C331     C        0.93623    0.26070    0.49530    1.000
    H236     H        0.93410    0.28620    0.45000    1.000
    C332     C        0.03680    0.99280    0.70990    1.000
    H237     H        0.02140    0.99710    0.74730    1.000
    C333     C        0.06460    0.95130    0.72620    1.000
    H238     H        0.06800    0.93110    0.77350    1.000
    C334     C        0.08593    0.98510    0.60480    1.000
    H239     H        0.10350    0.98880    0.57280    1.000
    C335     C        0.05683    0.02330    0.59080    1.000
    H240     H        0.05450    0.04720    0.54480    1.000
    C336     C        0.14485    0.90530    0.64250    1.000
    H241     H        0.14500    0.94030    0.60350    1.000
    C337     C        0.17284    0.86070    0.65750    1.000
    H242     H        0.19140    0.86590    0.62900    1.000
    C338     C        0.14863    0.81590    0.77190    1.000
    H243     H        0.15140    0.79220    0.81780    1.000
    C339     C        0.12083    0.86070    0.75720    1.000
    H244     H        0.10520    0.86590    0.79400    1.000
    C340     C        0.78808    0.39630    0.48160    1.000
    C341     C        0.82066    0.36400    0.49730    1.000
    C342     C        0.88069    0.29820    0.52820    1.000
    C343     C        0.91170    0.26150    0.54590    1.000
    C344     C        0.96978    0.18570    0.58180    1.000
    C345     C        0.03041    0.02810    0.64240    1.000
    C346     C        0.08688    0.94100    0.67050    1.000
    C347     C        0.73950    0.47750    0.21940    1.000
    C348     C        0.77590    0.54950    0.30150    1.000
    C349     C        0.73050    0.61340    0.22930    1.000
    Cd6      Cd       0.74200    0.33341    0.35052    1.000
    O31      O        0.77905    0.40230    0.41440    1.000
    O32      O        0.77145    0.41800    0.53460    1.000
    O33      O        0.70642    0.42360    0.39740    1.000
    O34      O        0.69724    0.54430    0.41660    1.000
    C350     C        0.11646    0.89750    0.68800    1.000
    C351     C        0.17135    0.80850    0.71690    1.000
    C352     C        0.20040    0.75850    0.73290    1.000
    O35      O        0.20378    0.73150    0.79340    1.000
    O36      O        0.21970    0.74910    0.68020    1.000
    C353     C        0.56310    0.42130    0.17180    1.000
    H245     H        0.56690    0.37750    0.19990    1.000
    C354     C        0.53590    0.42520    0.12640    1.000
    H246     H        0.52150    0.38460    0.12560    1.000
    C355     C        0.55350    0.54730    0.08180    1.000
    H247     H        0.55090    0.58850    0.04940    1.000
    C356     C        0.58010    0.54540    0.12820    1.000
    H248     H        0.59490    0.58540    0.12760    1.000
    C357     C        0.84590    0.37550    0.44940    1.000
    H249     H        0.84330    0.40420    0.40610    1.000
    C358     C        0.87540    0.34350    0.46690    1.000
    H250     H        0.89270    0.35330    0.43540    1.000
    C359     C        0.85480    0.29080    0.57880    1.000
    H251     H        0.85770    0.26370    0.62290    1.000
    C360     C        0.82532    0.32300    0.56370    1.000
    H252     H        0.80850    0.31770    0.59740    1.000
    C361     C        0.94889    0.15310    0.52960    1.000
    H253     H        0.95410    0.10730    0.50600    1.000
    C362     C        0.91912    0.18800    0.51580    1.000
    H254     H        0.90400    0.16280    0.48660    1.000
    C363     C        0.93541    0.29620    0.59010    1.000
    H255     H        0.93290    0.34720    0.60400    1.000
    C364     C        0.96286    0.25620    0.61400    1.000
    H256     H        0.97620    0.27660    0.65060    1.000
    C365     C        0.06000    0.91170    0.62670    1.000
    H257     H        0.06180    0.86310    0.60590    1.000
    C366     C        0.03160    0.95340    0.61430    1.000
    H258     H        0.01430    0.93230    0.58870    1.000
    C367     C        0.05140    0.05140    0.69700    1.000
    H259     H        0.04910    0.09860    0.72040    1.000
    C368     C        0.07697    0.00000    0.71670    1.000
    H260     H        0.08730    0.00660    0.76220    1.000
    C369     C        0.15312    0.80300    0.64910    1.000
    H261     H        0.16050    0.76920    0.61290    1.000
    C370     C        0.12622    0.84590    0.63250    1.000
    H262     H        0.11530    0.84090    0.58750    1.000
    C371     C        0.12732    0.89180    0.76200    1.000
    H263     H        0.11650    0.91610    0.80060    1.000
    C372     C        0.15402    0.84990    0.77530    1.000
    H264     H        0.16170    0.84720    0.82380    1.000
    C373     C        0.69142    0.51510    0.61720    1.000
    C374     C        0.66475    0.51620    0.67380    1.000
    C375     C        0.65540    0.58230    0.70850    1.000
    H265     H        0.66620    0.62770    0.69810    1.000
    C376     C        0.62995    0.58300    0.75920    1.000
    H266     H        0.62420    0.62810    0.78320    1.000
    C377     C        0.61332    0.51600    0.77340    1.000
    C378     C        0.62292    0.44960    0.73800    1.000
    H267     H        0.61220    0.40400    0.74820    1.000
    C379     C        0.64784    0.44970    0.68820    1.000
    H268     H        0.65340    0.40460    0.66390    1.000
    C380     C        0.58476    0.51640    0.82450    1.000
    C381     C        0.53034    0.51060    0.91780    1.000
    C382     C        0.58380    0.55780    0.89060    1.000
    H269     H        0.60170    0.58630    0.90510    1.000
    C383     C        0.55632    0.55730    0.93580    1.000
    H270     H        0.55540    0.58820    0.97790    1.000
    C384     C        0.53050    0.47030    0.85090    1.000
    H271     H        0.51250    0.44250    0.83640    1.000
    C385     C        0.55762    0.47190    0.80610    1.000
    H272     H        0.55790    0.44290    0.76260    1.000
    C386     C        0.83900    0.61460    0.44100    1.000
    H273     H        0.83130    0.57650    0.40960    1.000
    C387     C        0.86850    0.64840    0.42490    1.000
    H274     H        0.87980    0.63450    0.38230    1.000
    C388     C        0.86480    0.72070    0.53800    1.000
    H275     H        0.87430    0.75470    0.57130    1.000
    C389     C        0.83482    0.68860    0.55430    1.000
    H276     H        0.82420    0.70130    0.59810    1.000
    C390     C        0.91590    0.76880    0.38150    1.000
    H277     H        0.89910    0.76870    0.34740    1.000
    C391     C        0.94527    0.80310    0.36300    1.000
    H278     H        0.94890    0.81890    0.31420    1.000
    C392     C        0.96455    0.77890    0.48770    1.000
    H279     H        0.98060    0.78210    0.52380    1.000
    C393     C        0.93623    0.73930    0.50470    1.000
    H280     H        0.93410    0.71380    0.55000    1.000
    C394     C        0.03680    0.00720    0.29010    1.000
    H281     H        0.02140    0.00290    0.25270    1.000
    C395     C        0.06460    0.04870    0.27380    1.000
    H282     H        0.06800    0.06890    0.22650    1.000
    C396     C        0.08593    0.01490    0.39520    1.000
    H283     H        0.10350    0.01120    0.42720    1.000
    C397     C        0.05683    0.97670    0.40920    1.000
    H284     H        0.05450    0.95280    0.45520    1.000
    C398     C        0.14485    0.09470    0.35750    1.000
    H285     H        0.14500    0.05970    0.39650    1.000
    C399     C        0.17284    0.13930    0.34250    1.000
    H286     H        0.19140    0.13410    0.37100    1.000
    C400     C        0.14863    0.18410    0.22810    1.000
    H287     H        0.15140    0.20780    0.18220    1.000
    C401     C        0.12083    0.13930    0.24280    1.000
    H288     H        0.10520    0.13410    0.20600    1.000
    C402     C        0.78808    0.60370    0.51840    1.000
    C403     C        0.82066    0.63600    0.50270    1.000
    C404     C        0.88069    0.70180    0.47180    1.000
    C405     C        0.91170    0.73850    0.45410    1.000
    C406     C        0.96978    0.81430    0.41820    1.000
    C407     C        0.03041    0.97190    0.35760    1.000
    C408     C        0.08688    0.05900    0.32950    1.000
    C409     C        0.73950    0.52250    0.78060    1.000
    C410     C        0.77590    0.45050    0.69850    1.000
    C411     C        0.73050    0.38660    0.77070    1.000
    Cd7      Cd       0.74200    0.66659    0.64948    1.000
    O37      O        0.77905    0.59770    0.58560    1.000
    O38      O        0.77145    0.58200    0.46540    1.000
    O39      O        0.70642    0.57640    0.60260    1.000
    O40      O        0.69724    0.45570    0.58340    1.000
    C412     C        0.11646    0.10250    0.31200    1.000
    C413     C        0.17135    0.19150    0.28310    1.000
    C414     C        0.20040    0.24150    0.26710    1.000
    O41      O        0.20378    0.26850    0.20660    1.000
    O42      O        0.21970    0.25090    0.31980    1.000
    C415     C        0.56310    0.57870    0.82820    1.000
    H289     H        0.56690    0.62250    0.80010    1.000
    C416     C        0.53590    0.57480    0.87360    1.000
    H290     H        0.52150    0.61540    0.87440    1.000
    C417     C        0.55350    0.45270    0.91820    1.000
    H291     H        0.55090    0.41150    0.95060    1.000
    C418     C        0.58010    0.45460    0.87180    1.000
    H292     H        0.59490    0.41460    0.87240    1.000
    C419     C        0.84590    0.62450    0.55060    1.000
    H293     H        0.84330    0.59580    0.59390    1.000
    C420     C        0.87540    0.65650    0.53310    1.000
    H294     H        0.89270    0.64670    0.56460    1.000
    C421     C        0.85480    0.70920    0.42120    1.000
    H295     H        0.85770    0.73630    0.37710    1.000
    C422     C        0.82532    0.67700    0.43630    1.000
    H296     H        0.80850    0.68230    0.40260    1.000
    C423     C        0.94889    0.84690    0.47040    1.000
    H297     H        0.95410    0.89270    0.49400    1.000
    C424     C        0.91912    0.81200    0.48420    1.000
    H298     H        0.90400    0.83720    0.51340    1.000
    C425     C        0.93541    0.70380    0.40990    1.000
    H299     H        0.93290    0.65280    0.39600    1.000
    C426     C        0.96286    0.74380    0.38600    1.000
    H300     H        0.97620    0.72340    0.34940    1.000
    C427     C        0.06000    0.08830    0.37330    1.000
    H301     H        0.06180    0.13690    0.39410    1.000
    C428     C        0.03160    0.04660    0.38570    1.000
    H302     H        0.01430    0.06770    0.41130    1.000
    C429     C        0.05140    0.94860    0.30300    1.000
    H303     H        0.04910    0.90140    0.27960    1.000
    C430     C        0.07697    0.00000    0.28330    1.000
    H304     H        0.08730    0.99340    0.23780    1.000
    C431     C        0.15312    0.19700    0.35090    1.000
    H305     H        0.16050    0.23080    0.38710    1.000
    C432     C        0.12622    0.15410    0.36750    1.000
    H306     H        0.11530    0.15910    0.41250    1.000
    C433     C        0.12732    0.10820    0.23800    1.000
    H307     H        0.11650    0.08390    0.19940    1.000
    C434     C        0.15402    0.15010    0.22470    1.000
    H308     H        0.16170    0.15280    0.17620    1.000
    C435     C        0.80858    0.48490    0.11720    1.000
    C436     C        0.83525    0.48380    0.17380    1.000
    C437     C        0.84460    0.41770    0.20850    1.000
    H309     H        0.83380    0.37230    0.19810    1.000
    C438     C        0.87005    0.41700    0.25920    1.000
    H310     H        0.87580    0.37190    0.28320    1.000
    C439     C        0.88668    0.48400    0.27340    1.000
    C440     C        0.87708    0.55040    0.23800    1.000
    H311     H        0.88780    0.59600    0.24820    1.000
    C441     C        0.85216    0.55030    0.18820    1.000
    H312     H        0.84660    0.59540    0.16390    1.000
    C442     C        0.91524    0.48360    0.32450    1.000
    C443     C        0.96966    0.48940    0.41780    1.000
    C444     C        0.91620    0.44220    0.39060    1.000
    H313     H        0.89830    0.41370    0.40510    1.000
    C445     C        0.94368    0.44270    0.43580    1.000
    H314     H        0.94460    0.41180    0.47790    1.000
    C446     C        0.96950    0.52970    0.35090    1.000
    H315     H        0.98750    0.55750    0.33640    1.000
    C447     C        0.94238    0.52810    0.30610    1.000
    H316     H        0.94210    0.55710    0.26260    1.000
    C448     C        0.66100    0.38540    0.94100    1.000
    H317     H        0.66870    0.42350    0.90960    1.000
    C449     C        0.63150    0.35160    0.92490    1.000
    H318     H        0.62020    0.36550    0.88230    1.000
    C450     C        0.63520    0.27930    0.03800    1.000
    H319     H        0.62570    0.24530    0.07130    1.000
    C451     C        0.66518    0.31140    0.05430    1.000
    H320     H        0.67580    0.29870    0.09810    1.000
    C452     C        0.58410    0.23120    0.88150    1.000
    H321     H        0.60090    0.23130    0.84740    1.000
    C453     C        0.55473    0.19690    0.86300    1.000
    H322     H        0.55110    0.18110    0.81420    1.000
    C454     C        0.53545    0.22110    0.98770    1.000
    H323     H        0.51940    0.21790    0.02380    1.000
    C455     C        0.56377    0.26070    0.00470    1.000
    H324     H        0.56590    0.28620    0.05000    1.000
    C456     C        0.46320    0.99280    0.79010    1.000
    H325     H        0.47860    0.99710    0.75270    1.000
    C457     C        0.43540    0.95130    0.77380    1.000
    H326     H        0.43200    0.93110    0.72650    1.000
    C458     C        0.41407    0.98510    0.89520    1.000
    H327     H        0.39650    0.98880    0.92720    1.000
    C459     C        0.44317    0.02330    0.90920    1.000
    H328     H        0.44550    0.04720    0.95520    1.000
    C460     C        0.35515    0.90530    0.85750    1.000
    H329     H        0.35500    0.94030    0.89650    1.000
    C461     C        0.32716    0.86070    0.84250    1.000
    H330     H        0.30860    0.86590    0.87100    1.000
    C462     C        0.35137    0.81590    0.72810    1.000
    H331     H        0.34860    0.79220    0.68220    1.000
    C463     C        0.37917    0.86070    0.74280    1.000
    H332     H        0.39480    0.86590    0.70600    1.000
    C464     C        0.71192    0.39630    0.01840    1.000
    C465     C        0.67934    0.36400    0.00270    1.000
    C466     C        0.61931    0.29820    0.97180    1.000
    C467     C        0.58830    0.26150    0.95410    1.000
    C468     C        0.53022    0.18570    0.91820    1.000
    C469     C        0.46959    0.02810    0.85760    1.000
    C470     C        0.41312    0.94100    0.82950    1.000
    C471     C        0.76050    0.47750    0.28060    1.000
    C472     C        0.72410    0.54950    0.19850    1.000
    C473     C        0.76950    0.61340    0.27070    1.000
    Cd8      Cd       0.75800    0.33341    0.14948    1.000
    O43      O        0.72095    0.40230    0.08560    1.000
    O44      O        0.72855    0.41800    0.96540    1.000
    O45      O        0.79358    0.42360    0.10260    1.000
    O46      O        0.80276    0.54430    0.08340    1.000
    C474     C        0.38354    0.89750    0.81200    1.000
    C475     C        0.32865    0.80850    0.78310    1.000
    C476     C        0.29960    0.75850    0.76710    1.000
    O47      O        0.29622    0.73150    0.70660    1.000
    O48      O        0.28030    0.74910    0.81980    1.000
    C477     C        0.93690    0.42130    0.32820    1.000
    H333     H        0.93310    0.37750    0.30010    1.000
    C478     C        0.96410    0.42520    0.37360    1.000
    H334     H        0.97850    0.38460    0.37440    1.000
    C479     C        0.94650    0.54730    0.41820    1.000
    H335     H        0.94910    0.58850    0.45060    1.000
    C480     C        0.91990    0.54540    0.37180    1.000
    H336     H        0.90510    0.58540    0.37240    1.000
    C481     C        0.65410    0.37550    0.05060    1.000
    H337     H        0.65670    0.40420    0.09390    1.000
    C482     C        0.62460    0.34350    0.03310    1.000
    H338     H        0.60730    0.35330    0.06460    1.000
    C483     C        0.64520    0.29080    0.92120    1.000
    H339     H        0.64230    0.26370    0.87710    1.000
    C484     C        0.67468    0.32300    0.93630    1.000
    H340     H        0.69150    0.31770    0.90260    1.000
    C485     C        0.55111    0.15310    0.97040    1.000
    H341     H        0.54590    0.10730    0.99400    1.000
    C486     C        0.58088    0.18800    0.98420    1.000
    H342     H        0.59600    0.16280    0.01340    1.000
    C487     C        0.56459    0.29620    0.90990    1.000
    H343     H        0.56710    0.34720    0.89600    1.000
    C488     C        0.53714    0.25620    0.88600    1.000
    H344     H        0.52380    0.27660    0.84940    1.000
    C489     C        0.44000    0.91170    0.87330    1.000
    H345     H        0.43820    0.86310    0.89410    1.000
    C490     C        0.46840    0.95340    0.88570    1.000
    H346     H        0.48570    0.93230    0.91130    1.000
    C491     C        0.44860    0.05140    0.80300    1.000
    H347     H        0.45090    0.09860    0.77960    1.000
    C492     C        0.42303    0.00000    0.78330    1.000
    H348     H        0.41270    0.00660    0.73780    1.000
    C493     C        0.34688    0.80300    0.85090    1.000
    H349     H        0.33950    0.76920    0.88710    1.000
    C494     C        0.37378    0.84590    0.86750    1.000
    H350     H        0.38470    0.84090    0.91250    1.000
    C495     C        0.37268    0.89180    0.73800    1.000
    H351     H        0.38350    0.91610    0.69940    1.000
    C496     C        0.34598    0.84990    0.72470    1.000
    H352     H        0.33830    0.84720    0.67620    1.000
    C497     C        0.00000    0.49420    0.46290    1.000
    C498     C        0.50000    0.50580    0.96290    1.000
    C499     C        0.50000    0.49420    0.03710    1.000
    C500     C        0.00000    0.50580    0.53710    1.000
    C501     C        0.50000    0.14260    0.90040    1.000
    C502     C        0.50000    0.07200    0.87370    1.000
    C503     C        0.00000    0.85740    0.40040    1.000
    C504     C        0.00000    0.92800    0.37370    1.000
    C505     C        0.00000    0.14260    0.59960    1.000
    C506     C        0.00000    0.07200    0.62630    1.000
    C507     C        0.50000    0.85740    0.09960    1.000
    C508     C        0.50000    0.92800    0.12630    1.000
    N1       N        0.25000    0.54660    0.25000    1.000
    O49      O        0.25000    0.41760    0.25000    1.000
    N2       N        0.25000    0.45340    0.75000    1.000
    O50      O        0.25000    0.58240    0.75000    1.000
    N3       N        0.75000    0.45340    0.75000    1.000
    O51      O        0.75000    0.58240    0.75000    1.000
    N4       N        0.75000    0.54660    0.25000    1.000
    O52      O        0.75000    0.41760    0.25000    1.000
    Cd9      Cd       0.23401    0.50000    0.00000    1.000
    Cd10     Cd       0.26599    0.50000    0.50000    1.000
    Cd11     Cd       0.76599    0.50000    0.00000    1.000
    Cd12     Cd       0.73401    0.50000    0.50000    1.000
