# CIF file generated by openbabel 3.1.0, see https://openbabel.org
data_I
_chemical_name_common 'image0'
_cell_length_a 8.0098
_cell_length_b 13.813
_cell_length_c 22.126
_cell_angle_alpha 90
_cell_angle_beta 98.25
_cell_angle_gamma 90
_space_group_name_H-M_alt 'P 1'
_space_group_name_Hall 'P 1'
loop_
    _symmetry_equiv_pos_as_xyz
    x,y,z
loop_
    _atom_site_label
    _atom_site_type_symbol
    _atom_site_fract_x
    _atom_site_fract_y
    _atom_site_fract_z
    _atom_site_occupancy
    Zn1      Zn       0.19051    0.02099    0.15018    1.000
    O1       O        0.16350    0.93860    0.07769    1.000
    O2       O        0.00660    0.84860    0.12870    1.000
    H1       H        0.07040    0.81310    0.15090    1.000
    O3       O        0.02900    0.90770    0.84759    1.000
    O4       O        0.05990    0.75710    0.81640    1.000
    O5       O        0.76760    0.48390    0.26290    1.000
    O6       O        0.56910    0.39110    0.29140    1.000
    O7       O        0.34970    0.12850    0.15062    1.000
    O8       O        0.38570    0.13120    0.05280    1.000
    H2       H        0.47700    0.11210    0.04490    1.000
    N1       N        0.78100    0.53710    0.04158    1.000
    N2       N        0.68940    0.42760    0.97310    1.000
    H3       H        0.64250    0.37640    0.95630    1.000
    N3       N        0.76660    0.50010    0.94410    1.000
    C1       C        0.06870    0.86730    0.08270    1.000
    C2       C        0.02190    0.80450    0.02620    1.000
    C3       C        0.05020    0.83640    0.96940    1.000
    H4       H        0.09870    0.89680    0.96540    1.000
    C4       C        0.00650    0.77860    0.91800    1.000
    C5       C        0.93700    0.68840    0.92350    1.000
    H5       H        0.91250    0.64880    0.88940    1.000
    C6       C        0.90330    0.65650    0.98050    1.000
    C7       C        0.94610    0.71430    0.03150    1.000
    H6       H        0.92440    0.69290    0.06950    1.000
    C8       C        0.03230    0.81610    0.85540    1.000
    C9       C        0.81740    0.56300    0.98570    1.000
    C10      C        0.70070    0.45110    0.03080    1.000
    C11      C        0.64130    0.39980    0.08070    1.000
    C12      C        0.55630    0.30970    0.06990    1.000
    H7       H        0.54270    0.28310    0.03090    1.000
    C13      C        0.49370    0.26110    0.11650    1.000
    C14      C        0.51800    0.30130    0.17510    1.000
    H8       H        0.47230    0.27040    0.20630    1.000
    C15      C        0.60900    0.38650    0.18790    1.000
    C16      C        0.66990    0.43550    0.14020    1.000
    H9       H        0.73040    0.49270    0.14830    1.000
    C17      C        0.64860    0.42210    0.25200    1.000
    C18      C        0.40460    0.16720    0.10510    1.000
    Zn2      Zn       0.80949    0.52099    0.34982    1.000
    O9       O        0.83650    0.43860    0.42231    1.000
    O10      O        0.99340    0.34860    0.37130    1.000
    H10      H        0.92960    0.31310    0.34910    1.000
    O11      O        0.97100    0.40770    0.65241    1.000
    O12      O        0.94010    0.25710    0.68360    1.000
    O13      O        0.23240    0.98390    0.23710    1.000
    O14      O        0.43090    0.89110    0.20860    1.000
    O15      O        0.65030    0.62850    0.34938    1.000
    O16      O        0.61430    0.63120    0.44720    1.000
    H11      H        0.52300    0.61210    0.45510    1.000
    N4       N        0.21900    0.03710    0.45842    1.000
    N5       N        0.31060    0.92760    0.52690    1.000
    H12      H        0.35750    0.87640    0.54370    1.000
    N6       N        0.23340    0.00010    0.55590    1.000
    C19      C        0.93130    0.36730    0.41730    1.000
    C20      C        0.97810    0.30450    0.47380    1.000
    C21      C        0.94980    0.33640    0.53060    1.000
    H13      H        0.90130    0.39680    0.53460    1.000
    C22      C        0.99350    0.27860    0.58200    1.000
    C23      C        0.06300    0.18840    0.57650    1.000
    H14      H        0.08750    0.14880    0.61060    1.000
    C24      C        0.09670    0.15650    0.51950    1.000
    C25      C        0.05390    0.21430    0.46850    1.000
    H15      H        0.07560    0.19290    0.43050    1.000
    C26      C        0.96770    0.31610    0.64460    1.000
    C27      C        0.18260    0.06300    0.51430    1.000
    C28      C        0.29930    0.95110    0.46920    1.000
    C29      C        0.35870    0.89980    0.41930    1.000
    C30      C        0.44370    0.80970    0.43010    1.000
    H16      H        0.45730    0.78310    0.46910    1.000
    C31      C        0.50630    0.76110    0.38350    1.000
    C32      C        0.48200    0.80130    0.32490    1.000
    H17      H        0.52770    0.77040    0.29370    1.000
    C33      C        0.39100    0.88650    0.31210    1.000
    C34      C        0.33010    0.93550    0.35980    1.000
    H18      H        0.26960    0.99270    0.35170    1.000
    C35      C        0.35140    0.92210    0.24800    1.000
    C36      C        0.59540    0.66720    0.39490    1.000
    Zn3      Zn       0.80949    0.97901    0.84982    1.000
    O17      O        0.83650    0.06140    0.92231    1.000
    O18      O        0.99340    0.15140    0.87130    1.000
    H19      H        0.92960    0.18690    0.84910    1.000
    O19      O        0.97100    0.09230    0.15241    1.000
    O20      O        0.94010    0.24290    0.18360    1.000
    O21      O        0.23240    0.51610    0.73710    1.000
    O22      O        0.43090    0.60890    0.70860    1.000
    O23      O        0.65030    0.87150    0.84938    1.000
    O24      O        0.61430    0.86880    0.94720    1.000
    H20      H        0.52300    0.88790    0.95510    1.000
    N7       N        0.21900    0.46290    0.95842    1.000
    N8       N        0.31060    0.57240    0.02690    1.000
    H21      H        0.35750    0.62360    0.04370    1.000
    N9       N        0.23340    0.49990    0.05590    1.000
    C37      C        0.93130    0.13270    0.91730    1.000
    C38      C        0.97810    0.19550    0.97380    1.000
    C39      C        0.94980    0.16360    0.03060    1.000
    H22      H        0.90130    0.10320    0.03460    1.000
    C40      C        0.99350    0.22140    0.08200    1.000
    C41      C        0.06300    0.31160    0.07650    1.000
    H23      H        0.08750    0.35120    0.11060    1.000
    C42      C        0.09670    0.34350    0.01950    1.000
    C43      C        0.05390    0.28570    0.96850    1.000
    H24      H        0.07560    0.30710    0.93050    1.000
    C44      C        0.96770    0.18390    0.14460    1.000
    C45      C        0.18260    0.43700    0.01430    1.000
    C46      C        0.29930    0.54890    0.96920    1.000
    C47      C        0.35870    0.60020    0.91930    1.000
    C48      C        0.44370    0.69030    0.93010    1.000
    H25      H        0.45730    0.71690    0.96910    1.000
    C49      C        0.50630    0.73890    0.88350    1.000
    C50      C        0.48200    0.69870    0.82490    1.000
    H26      H        0.52770    0.72960    0.79370    1.000
    C51      C        0.39100    0.61350    0.81210    1.000
    C52      C        0.33010    0.56450    0.85980    1.000
    H27      H        0.26960    0.50730    0.85170    1.000
    C53      C        0.35140    0.57790    0.74800    1.000
    C54      C        0.59540    0.83280    0.89490    1.000
    Zn4      Zn       0.19051    0.47901    0.65018    1.000
    O25      O        0.16350    0.56140    0.57769    1.000
    O26      O        0.00660    0.65140    0.62870    1.000
    H28      H        0.07040    0.68690    0.65090    1.000
    O27      O        0.02900    0.59230    0.34759    1.000
    O28      O        0.05990    0.74290    0.31640    1.000
    O29      O        0.76760    0.01610    0.76290    1.000
    O30      O        0.56910    0.10890    0.79140    1.000
    O31      O        0.34970    0.37150    0.65062    1.000
    O32      O        0.38570    0.36880    0.55280    1.000
    H29      H        0.47700    0.38790    0.54490    1.000
    N10      N        0.78100    0.96290    0.54158    1.000
    N11      N        0.68940    0.07240    0.47310    1.000
    H30      H        0.64250    0.12360    0.45630    1.000
    N12      N        0.76660    0.99990    0.44410    1.000
    C55      C        0.06870    0.63270    0.58270    1.000
    C56      C        0.02190    0.69550    0.52620    1.000
    C57      C        0.05020    0.66360    0.46940    1.000
    H31      H        0.09870    0.60320    0.46540    1.000
    C58      C        0.00650    0.72140    0.41800    1.000
    C59      C        0.93700    0.81160    0.42350    1.000
    H32      H        0.91250    0.85120    0.38940    1.000
    C60      C        0.90330    0.84350    0.48050    1.000
    C61      C        0.94610    0.78570    0.53150    1.000
    H33      H        0.92440    0.80710    0.56950    1.000
    C62      C        0.03230    0.68390    0.35540    1.000
    C63      C        0.81740    0.93700    0.48570    1.000
    C64      C        0.70070    0.04890    0.53080    1.000
    C65      C        0.64130    0.10020    0.58070    1.000
    C66      C        0.55630    0.19030    0.56990    1.000
    H34      H        0.54270    0.21690    0.53090    1.000
    C67      C        0.49370    0.23890    0.61650    1.000
    C68      C        0.51800    0.19870    0.67510    1.000
    H35      H        0.47230    0.22960    0.70630    1.000
    C69      C        0.60900    0.11350    0.68790    1.000
    C70      C        0.66990    0.06450    0.64020    1.000
    H36      H        0.73040    0.00730    0.64830    1.000
    C71      C        0.64860    0.07790    0.75200    1.000
    C72      C        0.40460    0.33280    0.60510    1.000
