# CIF file generated by openbabel 3.1.0, see https://openbabel.org
data_I
_chemical_name_common 'YARDEC_clean'
_cell_length_a 11.548
_cell_length_b 11.7973
_cell_length_c 14.0617
_cell_angle_alpha 112.924
_cell_angle_beta 90
_cell_angle_gamma 119.303
_space_group_name_H-M_alt 'P 1'
_space_group_name_Hall 'P 1'
loop_
    _symmetry_equiv_pos_as_xyz
    x,y,z
loop_
    _atom_site_label
    _atom_site_type_symbol
    _atom_site_fract_x
    _atom_site_fract_y
    _atom_site_fract_z
    _atom_site_occupancy
    Zn1      Zn       0.01175    0.00000    0.75000    1.000
    Zn2      Zn       0.98825    0.00000    0.25000    1.000
    H1       H        0.94500    0.16140    0.96540    1.000
    H2       H        0.80280    0.74420    0.80420    1.000
    H3       H        0.69900    0.77640    0.95640    1.000
    H4       H        0.75920    0.02360    0.13540    1.000
    H5       H        0.83140    0.16700    0.12150    1.000
    H6       H        0.69810    0.20060    0.00700    1.000
    H7       H        0.51270    0.85480    0.06620    1.000
    H8       H        0.45730    0.29600    0.85070    1.000
    H9       H        0.32180    0.52960    0.04980    1.000
    H10      H        0.78360    0.83860    0.53460    1.000
    H11      H        0.05860    0.25580    0.69580    1.000
    H12      H        0.92260    0.22360    0.54360    1.000
    H13      H        0.73560    0.97640    0.36460    1.000
    H14      H        0.66440    0.83300    0.37850    1.000
    H15      H        0.49750    0.79940    0.49300    1.000
    H16      H        0.65790    0.14520    0.43380    1.000
    H17      H        0.16130    0.70400    0.64930    1.000
    H18      H        0.79220    0.47040    0.45020    1.000
    H19      H        0.05500    0.83860    0.03460    1.000
    H20      H        0.19720    0.25580    0.19580    1.000
    H21      H        0.30100    0.22360    0.04360    1.000
    H22      H        0.24080    0.97640    0.86460    1.000
    H23      H        0.16860    0.83300    0.87850    1.000
    H24      H        0.30190    0.79940    0.99300    1.000
    H25      H        0.48730    0.14520    0.93380    1.000
    H26      H        0.54270    0.70400    0.14930    1.000
    H27      H        0.67820    0.47040    0.95020    1.000
    H28      H        0.21640    0.16140    0.46540    1.000
    H29      H        0.94140    0.74420    0.30420    1.000
    H30      H        0.07740    0.77640    0.45640    1.000
    H31      H        0.26440    0.02360    0.63540    1.000
    H32      H        0.33560    0.16700    0.62150    1.000
    H33      H        0.50250    0.20060    0.50700    1.000
    H34      H        0.34210    0.85480    0.56620    1.000
    H35      H        0.83870    0.29600    0.35070    1.000
    H36      H        0.20780    0.52960    0.54980    1.000
    C1       C        0.89725    0.06174    0.94375    1.000
    C2       C        0.81860    0.83240    0.85552    1.000
    C3       C        0.76102    0.84924    0.93950    1.000
    C4       C        0.76590    0.06304    0.08520    1.000
    C5       C        0.62734    0.03330    0.04475    1.000
    C6       C        0.61887    0.11994    0.00450    1.000
    C7       C        0.50798    0.91376    0.03960    1.000
    C8       C        0.22141    0.27842    0.87899    1.000
    C9       C        0.36600    0.39446    0.94018    1.000
    C10      C        0.47430    0.37790    0.91077    1.000
    C11      C        0.39323    0.51742    0.02966    1.000
    C12      C        0.83551    0.93826    0.55625    1.000
    C13      C        0.98620    0.16760    0.64448    1.000
    C14      C        0.91178    0.15076    0.56050    1.000
    C15      C        0.70286    0.93696    0.41480    1.000
    C16      C        0.59404    0.96670    0.45525    1.000
    C17      C        0.49893    0.88006    0.49550    1.000
    C18      C        0.59422    0.08624    0.46040    1.000
    C19      C        0.94299    0.72158    0.62101    1.000
    C20      C        0.97154    0.60554    0.55982    1.000
    C21      C        0.09640    0.62210    0.58923    1.000
    C22      C        0.87581    0.48258    0.47034    1.000
    C23      C        0.10275    0.93826    0.05625    1.000
    C24      C        0.18140    0.16760    0.14448    1.000
    C25      C        0.23898    0.15076    0.06050    1.000
    C26      C        0.23410    0.93696    0.91480    1.000
    C27      C        0.37266    0.96670    0.95525    1.000
    C28      C        0.38113    0.88006    0.99550    1.000
    C29      C        0.49202    0.08624    0.96040    1.000
    C30      C        0.77859    0.72158    0.12101    1.000
    C31      C        0.63400    0.60554    0.05982    1.000
    C32      C        0.52570    0.62210    0.08923    1.000
    C33      C        0.60677    0.48258    0.97034    1.000
    C34      C        0.16449    0.06174    0.44375    1.000
    C35      C        0.01380    0.83240    0.35552    1.000
    C36      C        0.08822    0.84924    0.43950    1.000
    C37      C        0.29714    0.06304    0.58520    1.000
    C38      C        0.40596    0.03330    0.54475    1.000
    C39      C        0.50107    0.11994    0.50450    1.000
    C40      C        0.40578    0.91376    0.53960    1.000
    C41      C        0.05701    0.27842    0.37899    1.000
    C42      C        0.02846    0.39446    0.44018    1.000
    C43      C        0.90360    0.37790    0.41077    1.000
    C44      C        0.12419    0.51742    0.52966    1.000
    N1       N        0.90450    0.96592    0.85749    1.000
    N2       N        0.81211    0.99504    0.99471    1.000
    N3       N        0.93858    0.03408    0.64251    1.000
    N4       N        0.81707    0.00496    0.50529    1.000
    N5       N        0.09550    0.03408    0.14251    1.000
    N6       N        0.18789    0.00496    0.00529    1.000
    N7       N        0.06142    0.96592    0.35749    1.000
    N8       N        0.18293    0.99504    0.49471    1.000
    O1       O        0.20415    0.15670    0.81389    1.000
    O2       O        0.12892    0.30328    0.89464    1.000
    O3       O        0.04745    0.84330    0.68611    1.000
    O4       O        0.82564    0.69672    0.60536    1.000
    O5       O        0.79585    0.84330    0.18611    1.000
    O6       O        0.87108    0.69672    0.10536    1.000
    O7       O        0.95255    0.15670    0.31389    1.000
    O8       O        0.17436    0.30328    0.39464    1.000
