# CIF file generated by openbabel 3.1.0, see https://openbabel.org
data_I
_chemical_name_common 'CUGLTM01_clean'
_cell_length_a 7.2255
_cell_length_b 10.3053
_cell_length_c 11.0499
_cell_angle_alpha 90
_cell_angle_beta 90
_cell_angle_gamma 90
_space_group_name_H-M_alt 'P 1'
_space_group_name_Hall 'P 1'
loop_
    _symmetry_equiv_pos_as_xyz
    x,y,z
loop_
    _atom_site_label
    _atom_site_type_symbol
    _atom_site_fract_x
    _atom_site_fract_y
    _atom_site_fract_z
    _atom_site_occupancy
    Cu1      Cu       0.10066    0.93320    0.52934    1.000
    Cu2      Cu       0.39934    0.06680    0.02934    1.000
    H1       H        0.16200    0.72800    0.27880    1.000
    H2       H        0.21460    0.94950    0.30210    1.000
    H3       H        0.30060    0.85010    0.37350    1.000
    H4       H        0.90080    0.76010    0.16950    1.000
    H5       H        0.00860    0.87920    0.15410    1.000
    H6       H        0.71230    0.86880    0.31130    1.000
    H7       H        0.83550    0.00570    0.30630    1.000
    H8       H        0.33800    0.27200    0.77880    1.000
    H9       H        0.28540    0.05050    0.80210    1.000
    H10      H        0.19940    0.14990    0.87350    1.000
    H11      H        0.59920    0.23990    0.66950    1.000
    H12      H        0.49140    0.12080    0.65410    1.000
    H13      H        0.78770    0.13120    0.81130    1.000
    H14      H        0.66450    0.99430    0.80630    1.000
    C1       C        0.97190    0.71530    0.40980    1.000
    C2       C        0.07890    0.78430    0.31100    1.000
    C3       C        0.94910    0.83120    0.21330    1.000
    C4       C        0.79320    0.91860    0.25690    1.000
    C5       C        0.67260    0.96910    0.15490    1.000
    C6       C        0.52810    0.28470    0.90980    1.000
    C7       C        0.42110    0.21570    0.81100    1.000
    C8       C        0.55090    0.16880    0.71330    1.000
    C9       C        0.70680    0.08140    0.75690    1.000
    C10      C        0.82740    0.03090    0.65490    1.000
    N1       N        0.19000    0.89160    0.36250    1.000
    N2       N        0.31000    0.10840    0.86250    1.000
    O1       O        0.98010    0.76210    0.51700    1.000
    O2       O        0.87590    0.62060    0.38050    1.000
    O3       O        0.52530    0.02900    0.18460    1.000
    O4       O        0.71380    0.94910    0.04710    1.000
    O5       O        0.51990    0.23790    0.01700    1.000
    O6       O        0.62410    0.37940    0.88050    1.000
    O7       O        0.97470    0.97100    0.68460    1.000
    O8       O        0.78620    0.05090    0.54710    1.000
    Cu3      Cu       0.89934    0.43320    0.97066    1.000
    Cu4      Cu       0.60066    0.56680    0.47066    1.000
    H15      H        0.83800    0.22800    0.22120    1.000
    H16      H        0.78540    0.44950    0.19790    1.000
    H17      H        0.69940    0.35010    0.12650    1.000
    H18      H        0.09920    0.26010    0.33050    1.000
    H19      H        0.99140    0.37920    0.34590    1.000
    H20      H        0.28770    0.36880    0.18870    1.000
    H21      H        0.16450    0.50570    0.19370    1.000
    H22      H        0.66200    0.77200    0.72120    1.000
    H23      H        0.71460    0.55050    0.69790    1.000
    H24      H        0.80060    0.64990    0.62650    1.000
    H25      H        0.40080    0.73990    0.83050    1.000
    H26      H        0.50860    0.62080    0.84590    1.000
    H27      H        0.21230    0.63120    0.68870    1.000
    H28      H        0.33550    0.49430    0.69370    1.000
    C11      C        0.02810    0.21530    0.09020    1.000
    C12      C        0.92110    0.28430    0.18900    1.000
    C13      C        0.05090    0.33120    0.28670    1.000
    C14      C        0.20680    0.41860    0.24310    1.000
    C15      C        0.32740    0.46910    0.34510    1.000
    C16      C        0.47190    0.78470    0.59020    1.000
    C17      C        0.57890    0.71570    0.68900    1.000
    C18      C        0.44910    0.66880    0.78670    1.000
    C19      C        0.29320    0.58140    0.74310    1.000
    C20      C        0.17260    0.53090    0.84510    1.000
    N3       N        0.81000    0.39160    0.13750    1.000
    N4       N        0.69000    0.60840    0.63750    1.000
    O9       O        0.01990    0.26210    0.98300    1.000
    O10      O        0.12410    0.12060    0.11950    1.000
    O11      O        0.47470    0.52900    0.31540    1.000
    O12      O        0.28620    0.44910    0.45290    1.000
    O13      O        0.48010    0.73790    0.48300    1.000
    O14      O        0.37590    0.87940    0.61950    1.000
    O15      O        0.02530    0.47100    0.81540    1.000
    O16      O        0.21380    0.55090    0.95290    1.000
