# CIF file generated by openbabel 3.1.0, see https://openbabel.org
data_I
_chemical_name_common 'image0'
_cell_length_a 9.787
_cell_length_b 12.157
_cell_length_c 15.182
_cell_angle_alpha 90
_cell_angle_beta 90
_cell_angle_gamma 90
_space_group_name_H-M_alt 'P 1'
_space_group_name_Hall 'P 1'
loop_
    _symmetry_equiv_pos_as_xyz
    x,y,z
loop_
    _atom_site_label
    _atom_site_type_symbol
    _atom_site_fract_x
    _atom_site_fract_y
    _atom_site_fract_z
    _atom_site_occupancy
    C1       C        0.37850    0.82060    0.86230    1.000
    C2       C        0.37830    0.75680    0.78770    1.000
    H1       H        0.29450    0.73770    0.76010    1.000
    C3       C        0.24850    0.86550    0.90250    1.000
    O1       O        0.15110    0.88100    0.85290    1.000
    O2       O        0.25530    0.88440    0.98250    1.000
    O3       O        0.38650    0.61840    0.64550    1.000
    C4       C        0.87850    0.32060    0.36230    1.000
    C5       C        0.87830    0.25680    0.28770    1.000
    H2       H        0.79450    0.23770    0.26010    1.000
    C6       C        0.74850    0.36550    0.40250    1.000
    O4       O        0.65110    0.38100    0.35290    1.000
    O5       O        0.75530    0.38440    0.48250    1.000
    O6       O        0.88650    0.11840    0.14550    1.000
    C7       C        0.62150    0.17940    0.86230    1.000
    C8       C        0.62170    0.24320    0.78770    1.000
    H3       H        0.70550    0.26230    0.76010    1.000
    C9       C        0.75150    0.13450    0.90250    1.000
    O7       O        0.84890    0.11900    0.85290    1.000
    O8       O        0.74470    0.11560    0.98250    1.000
    O9       O        0.61350    0.38160    0.64550    1.000
    C10      C        0.12150    0.67940    0.36230    1.000
    C11      C        0.12170    0.74320    0.28770    1.000
    H4       H        0.20550    0.76230    0.26010    1.000
    C12      C        0.25150    0.63450    0.40250    1.000
    O10      O        0.34890    0.61900    0.35290    1.000
    O11      O        0.24470    0.61560    0.48250    1.000
    O12      O        0.11350    0.88160    0.14550    1.000
    C13      C        0.37850    0.17940    0.86230    1.000
    C14      C        0.37830    0.24320    0.78770    1.000
    H5       H        0.29450    0.26230    0.76010    1.000
    C15      C        0.24850    0.13450    0.90250    1.000
    O13      O        0.15110    0.11900    0.85290    1.000
    O14      O        0.25530    0.11560    0.98250    1.000
    O15      O        0.38650    0.38160    0.64550    1.000
    C16      C        0.87850    0.67940    0.36230    1.000
    C17      C        0.87830    0.74320    0.28770    1.000
    H6       H        0.79450    0.76230    0.26010    1.000
    C18      C        0.74850    0.63450    0.40250    1.000
    O16      O        0.65110    0.61900    0.35290    1.000
    O17      O        0.75530    0.61560    0.48250    1.000
    O18      O        0.88650    0.88160    0.14550    1.000
    C19      C        0.62150    0.82060    0.86230    1.000
    C20      C        0.62170    0.75680    0.78770    1.000
    H7       H        0.70550    0.73770    0.76010    1.000
    C21      C        0.75150    0.86550    0.90250    1.000
    O19      O        0.84890    0.88100    0.85290    1.000
    O20      O        0.74470    0.88440    0.98250    1.000
    O21      O        0.61350    0.61840    0.64550    1.000
    C22      C        0.12150    0.32060    0.36230    1.000
    C23      C        0.12170    0.25680    0.28770    1.000
    H8       H        0.20550    0.23770    0.26010    1.000
    C24      C        0.25150    0.36550    0.40250    1.000
    O22      O        0.34890    0.38100    0.35290    1.000
    O23      O        0.24470    0.38440    0.48250    1.000
    O24      O        0.11350    0.11840    0.14550    1.000
    C25      C        0.50000    0.85300    0.89950    1.000
    H9       H        0.50000    0.89780    0.95080    1.000
    C26      C        0.50000    0.72100    0.75330    1.000
    C27      C        0.50000    0.64780    0.67380    1.000
    C28      C        0.00000    0.35300    0.39950    1.000
    H10      H        0.00000    0.39780    0.45080    1.000
    C29      C        0.00000    0.22100    0.25330    1.000
    C30      C        0.00000    0.14780    0.17380    1.000
    C31      C        0.50000    0.14700    0.89950    1.000
    H11      H        0.50000    0.10220    0.95080    1.000
    C32      C        0.50000    0.27900    0.75330    1.000
    C33      C        0.50000    0.35220    0.67380    1.000
    C34      C        0.00000    0.64700    0.39950    1.000
    H12      H        0.00000    0.60220    0.45080    1.000
    C35      C        0.00000    0.77900    0.25330    1.000
    C36      C        0.00000    0.85220    0.17380    1.000
    Ni1      Ni       0.00000    0.00000    0.86322    1.000
    O25      O        0.00000    0.00000    0.99090    1.000
    Ni2      Ni       0.50000    0.50000    0.36322    1.000
    O26      O        0.50000    0.50000    0.49090    1.000
    Ni3      Ni       0.83138    0.00000    0.06020    1.000
    Ni4      Ni       0.33138    0.50000    0.56020    1.000
    Ni5      Ni       0.16862    0.00000    0.06020    1.000
    Ni6      Ni       0.66862    0.50000    0.56020    1.000
