# CIF file generated by openbabel 3.1.0, see https://openbabel.org
data_I
_chemical_name_common 'image0'
_cell_length_a 9.1741
_cell_length_b 9.3387
_cell_length_c 17.7642
_cell_angle_alpha 83.75
_cell_angle_beta 72.724
_cell_angle_gamma 86.44
_space_group_name_H-M_alt 'P 1'
_space_group_name_Hall 'P 1'
loop_
    _symmetry_equiv_pos_as_xyz
    x,y,z
loop_
    _atom_site_label
    _atom_site_type_symbol
    _atom_site_fract_x
    _atom_site_fract_y
    _atom_site_fract_z
    _atom_site_occupancy
    C1       C        0.66950    0.20540    0.82640    1.000
    C2       C        0.56590    0.23710    0.91670    1.000
    H1       H        0.52200    0.14900    0.94670    1.000
    H2       H        0.62760    0.27740    0.94460    1.000
    C3       C        0.34020    0.36590    0.98720    1.000
    H3       H        0.28640    0.27950    0.01320    1.000
    H4       H        0.39580    0.39750    0.02080    1.000
    C4       C        0.22980    0.48360    0.97000    1.000
    C5       C        0.71180    0.69980    0.77030    1.000
    C6       C        0.61100    0.81100    0.73660    1.000
    H5       H        0.58320    0.89050    0.76950    1.000
    H6       H        0.66760    0.84890    0.68360    1.000
    C7       C        0.39540    0.83800    0.68380    1.000
    H7       H        0.46580    0.86400    0.63200    1.000
    H8       H        0.35580    0.92590    0.70820    1.000
    C8       C        0.26500    0.75470    0.67530    1.000
    C9       C        0.24360    0.23270    0.70450    1.000
    C10      C        0.37190    0.23710    0.61850    1.000
    H9       H        0.42650    0.14490    0.61140    1.000
    H10      H        0.32480    0.25970    0.57630    1.000
    C11      C        0.60230    0.35450    0.54240    1.000
    H11      H        0.66150    0.26450    0.53730    1.000
    H12      H        0.56420    0.37520    0.49680    1.000
    C12      C        0.69780    0.47490    0.54870    1.000
    C13      C        0.15710    0.89830    0.88470    1.000
    N1       N        0.06500    0.85050    0.86220    1.000
    O1       O        0.63820    0.26780    0.75840    1.000
    O2       O        0.44930    0.33770    0.90554    1.000
    O3       O        0.24410    0.52820    0.89058    1.000
    O4       O        0.78020    0.12260    0.82550    1.000
    O5       O        0.13380    0.52410    0.03665    1.000
    O6       O        0.65830    0.57710    0.80007    1.000
    O7       O        0.47730    0.74640    0.73407    1.000
    O8       O        0.25710    0.62270    0.70251    1.000
    O9       O        0.84250    0.73530    0.76450    1.000
    O10      O        0.17310    0.82330    0.64066    1.000
    O11      O        0.25790    0.30410    0.76460    1.000
    O12      O        0.47180    0.34590    0.61825    1.000
    O13      O        0.65370    0.54200    0.61701    1.000
    O14      O        0.13300    0.15990    0.71060    1.000
    O15      O        0.81320    0.50170    0.48482    1.000
    S1       S        0.28425    0.96940    0.91944    1.000
    Pr1      Pr       0.45383    0.47322    0.75633    1.000
    Na1      Na       0.02091    0.60233    0.83614    1.000
    Na2      Na       0.96443    0.97032    0.73585    1.000
    Na3      Na       0.02948    0.62731    0.62484    1.000
    C14      C        0.33050    0.79460    0.17360    1.000
    C15      C        0.43410    0.76290    0.08330    1.000
    H13      H        0.47800    0.85100    0.05330    1.000
    H14      H        0.37240    0.72260    0.05540    1.000
    C16      C        0.65980    0.63410    0.01280    1.000
    H15      H        0.71360    0.72050    0.98680    1.000
    H16      H        0.60420    0.60250    0.97920    1.000
    C17      C        0.77020    0.51640    0.03000    1.000
    C18      C        0.28820    0.30020    0.22970    1.000
    C19      C        0.38900    0.18900    0.26340    1.000
    H17      H        0.41680    0.10950    0.23050    1.000
    H18      H        0.33240    0.15110    0.31640    1.000
    C20      C        0.60460    0.16200    0.31620    1.000
    H19      H        0.53420    0.13600    0.36800    1.000
    H20      H        0.64420    0.07410    0.29180    1.000
    C21      C        0.73500    0.24530    0.32470    1.000
    C22      C        0.75640    0.76730    0.29550    1.000
    C23      C        0.62810    0.76290    0.38150    1.000
    H21      H        0.57350    0.85510    0.38860    1.000
    H22      H        0.67520    0.74030    0.42370    1.000
    C24      C        0.39770    0.64550    0.45760    1.000
    H23      H        0.33850    0.73550    0.46270    1.000
    H24      H        0.43580    0.62480    0.50320    1.000
    C25      C        0.30220    0.52510    0.45130    1.000
    C26      C        0.84290    0.10170    0.11530    1.000
    N2       N        0.93500    0.14950    0.13780    1.000
    O16      O        0.36180    0.73220    0.24160    1.000
    O17      O        0.55070    0.66230    0.09446    1.000
    O18      O        0.75590    0.47180    0.10942    1.000
    O19      O        0.21980    0.87740    0.17450    1.000
    O20      O        0.86620    0.47590    0.96335    1.000
    O21      O        0.34170    0.42290    0.19993    1.000
    O22      O        0.52270    0.25360    0.26593    1.000
    O23      O        0.74290    0.37730    0.29749    1.000
    O24      O        0.15750    0.26470    0.23550    1.000
    O25      O        0.82690    0.17670    0.35934    1.000
    O26      O        0.74210    0.69590    0.23540    1.000
    O27      O        0.52820    0.65410    0.38175    1.000
    O28      O        0.34630    0.45800    0.38299    1.000
    O29      O        0.86700    0.84010    0.28940    1.000
    O30      O        0.18680    0.49830    0.51518    1.000
    S2       S        0.71575    0.03060    0.08056    1.000
    Pr2      Pr       0.54617    0.52678    0.24367    1.000
    Na4      Na       0.97909    0.39767    0.16386    1.000
    Na5      Na       0.03557    0.02968    0.26415    1.000
    Na6      Na       0.97052    0.37269    0.37516    1.000
