# CIF file generated by openbabel 3.1.0, see https://openbabel.org
data_I
_chemical_name_common 'image0'
_cell_length_a 18.001
_cell_length_b 18.001
_cell_length_c 12.946
_cell_angle_alpha 90
_cell_angle_beta 90
_cell_angle_gamma 90
_space_group_name_H-M_alt 'P 1'
_space_group_name_Hall 'P 1'
loop_
    _symmetry_equiv_pos_as_xyz
    x,y,z
loop_
    _atom_site_label
    _atom_site_type_symbol
    _atom_site_fract_x
    _atom_site_fract_y
    _atom_site_fract_z
    _atom_site_occupancy
    N1       N        0.55740    0.04370    0.30750    1.000
    N2       N        0.51400    0.01120    0.15390    1.000
    N3       N        0.91290    0.06610    0.47420    1.000
    N4       N        0.79850    0.10650    0.45600    1.000
    C1       C        0.60130    0.07780    0.38550    1.000
    C2       C        0.84210    0.04720    0.47090    1.000
    H1       H        0.82470    0.99890    0.47810    1.000
    C3       C        0.60760    0.15120    0.53960    1.000
    C4       C        0.67880    0.07280    0.38250    1.000
    H2       H        0.70260    0.04650    0.33030    1.000
    C5       C        0.71880    0.10800    0.45890    1.000
    C6       C        0.56860    0.04380    0.20460    1.000
    H3       H        0.61010    0.06450    0.17280    1.000
    O1       O        0.49970    0.19880    0.62790    1.000
    C7       C        0.46470    0.98840    0.22990    1.000
    H4       H        0.42050    0.96300    0.21790    1.000
    C8       C        0.56620    0.11760    0.46240    1.000
    H5       H        0.51470    0.12180    0.46250    1.000
    C9       C        0.68510    0.14620    0.53740    1.000
    H6       H        0.71340    0.16860    0.58880    1.000
    C10      C        0.49010    0.00840    0.32370    1.000
    H7       H        0.46700    0.00010    0.38690    1.000
    C11      C        0.91430    0.14150    0.45920    1.000
    H8       H        0.95700    0.17050    0.45690    1.000
    O2       O        0.60980    0.23450    0.68090    1.000
    C12      C        0.84470    0.16720    0.44840    1.000
    H9       H        0.83060    0.21630    0.43780    1.000
    C13      C        0.57180    0.19610    0.62350    1.000
    N5       N        0.94260    0.45630    0.30750    1.000
    N6       N        0.98600    0.48880    0.15390    1.000
    N7       N        0.58710    0.43390    0.47420    1.000
    N8       N        0.70150    0.39350    0.45600    1.000
    C14      C        0.89870    0.42220    0.38550    1.000
    C15      C        0.65790    0.45280    0.47090    1.000
    H10      H        0.67530    0.50110    0.47810    1.000
    C16      C        0.89240    0.34880    0.53960    1.000
    C17      C        0.82120    0.42720    0.38250    1.000
    H11      H        0.79740    0.45350    0.33030    1.000
    C18      C        0.78120    0.39200    0.45890    1.000
    C19      C        0.93140    0.45620    0.20460    1.000
    H12      H        0.88990    0.43550    0.17280    1.000
    O3       O        0.00030    0.30120    0.62790    1.000
    C20      C        0.03530    0.51160    0.22990    1.000
    H13      H        0.07950    0.53700    0.21790    1.000
    C21      C        0.93380    0.38240    0.46240    1.000
    H14      H        0.98530    0.37820    0.46250    1.000
    C22      C        0.81490    0.35380    0.53740    1.000
    H15      H        0.78660    0.33140    0.58880    1.000
    C23      C        0.00990    0.49160    0.32370    1.000
    H16      H        0.03300    0.49990    0.38690    1.000
    C24      C        0.58570    0.35850    0.45920    1.000
    H17      H        0.54300    0.32950    0.45690    1.000
    O4       O        0.89020    0.26550    0.68090    1.000
    C25      C        0.65530    0.33280    0.44840    1.000
    H18      H        0.66940    0.28370    0.43780    1.000
    C26      C        0.92820    0.30390    0.62350    1.000
    N9       N        0.95630    0.05740    0.80750    1.000
    N10      N        0.98880    0.01400    0.65390    1.000
    N11      N        0.93390    0.41290    0.97420    1.000
    N12      N        0.89350    0.29850    0.95600    1.000
    C27      C        0.92220    0.10130    0.88550    1.000
    C28      C        0.95280    0.34210    0.97090    1.000
    H19      H        0.00110    0.32470    0.97810    1.000
    C29      C        0.84880    0.10760    0.03960    1.000
    C30      C        0.92720    0.17880    0.88250    1.000
    H20      H        0.95350    0.20260    0.83030    1.000
    C31      C        0.89200    0.21880    0.95890    1.000
    C32      C        0.95620    0.06860    0.70460    1.000
    H21      H        0.93550    0.11010    0.67280    1.000
    O5       O        0.80120    0.99970    0.12790    1.000
    C33      C        0.01160    0.96470    0.72990    1.000
    H22      H        0.03700    0.92050    0.71790    1.000
    C34      C        0.88240    0.06620    0.96240    1.000
    H23      H        0.87820    0.01470    0.96250    1.000
    C35      C        0.85380    0.18510    0.03740    1.000
    H24      H        0.83140    0.21340    0.08880    1.000
    C36      C        0.99160    0.99010    0.82370    1.000
    H25      H        0.99990    0.96700    0.88690    1.000
    C37      C        0.85850    0.41430    0.95920    1.000
    H26      H        0.82950    0.45700    0.95690    1.000
    O6       O        0.76550    0.10980    0.18090    1.000
    C38      C        0.83280    0.34470    0.94840    1.000
    H27      H        0.78370    0.33060    0.93780    1.000
    C39      C        0.80390    0.07180    0.12350    1.000
    N13      N        0.54370    0.44260    0.80750    1.000
    N14      N        0.51120    0.48600    0.65390    1.000
    N15      N        0.56610    0.08710    0.97420    1.000
    N16      N        0.60650    0.20150    0.95600    1.000
    C40      C        0.57780    0.39870    0.88550    1.000
    C41      C        0.54720    0.15790    0.97090    1.000
    H28      H        0.49890    0.17530    0.97810    1.000
    C42      C        0.65120    0.39240    0.03960    1.000
    C43      C        0.57280    0.32120    0.88250    1.000
    H29      H        0.54650    0.29740    0.83030    1.000
    C44      C        0.60800    0.28120    0.95890    1.000
    C45      C        0.54380    0.43140    0.70460    1.000
    H30      H        0.56450    0.38990    0.67280    1.000
    O7       O        0.69880    0.50030    0.12790    1.000
    C46      C        0.48840    0.53530    0.72990    1.000
    H31      H        0.46300    0.57950    0.71790    1.000
    C47      C        0.61760    0.43380    0.96240    1.000
    H32      H        0.62180    0.48530    0.96250    1.000
    C48      C        0.64620    0.31490    0.03740    1.000
    H33      H        0.66860    0.28660    0.08880    1.000
    C49      C        0.50840    0.50990    0.82370    1.000
    H34      H        0.50010    0.53300    0.88690    1.000
    C50      C        0.64150    0.08570    0.95920    1.000
    H35      H        0.67050    0.04300    0.95690    1.000
    O8       O        0.73450    0.39020    0.18090    1.000
    C51      C        0.66720    0.15530    0.94840    1.000
    H36      H        0.71630    0.16940    0.93780    1.000
    C52      C        0.69610    0.42820    0.12350    1.000
    N17      N        0.44260    0.95630    0.69250    1.000
    N18      N        0.48600    0.98880    0.84610    1.000
    N19      N        0.08710    0.93390    0.52580    1.000
    N20      N        0.20150    0.89350    0.54400    1.000
    C53      C        0.39870    0.92220    0.61450    1.000
    C54      C        0.15790    0.95280    0.52910    1.000
    H37      H        0.17530    0.00110    0.52190    1.000
    C55      C        0.39240    0.84880    0.46040    1.000
    C56      C        0.32120    0.92720    0.61750    1.000
    H38      H        0.29740    0.95350    0.66970    1.000
    C57      C        0.28120    0.89200    0.54110    1.000
    C58      C        0.43140    0.95620    0.79540    1.000
    H39      H        0.38990    0.93550    0.82720    1.000
    O9       O        0.50030    0.80120    0.37210    1.000
    C59      C        0.53530    0.01160    0.77010    1.000
    H40      H        0.57950    0.03700    0.78210    1.000
    C60      C        0.43380    0.88240    0.53760    1.000
    H41      H        0.48530    0.87820    0.53750    1.000
    C61      C        0.31490    0.85380    0.46260    1.000
    H42      H        0.28660    0.83140    0.41120    1.000
    C62      C        0.50990    0.99160    0.67630    1.000
    H43      H        0.53300    0.99990    0.61310    1.000
    C63      C        0.08570    0.85850    0.54080    1.000
    H44      H        0.04300    0.82950    0.54310    1.000
    O10      O        0.39020    0.76550    0.31910    1.000
    C64      C        0.15530    0.83280    0.55160    1.000
    H45      H        0.16940    0.78370    0.56220    1.000
    C65      C        0.42820    0.80390    0.37650    1.000
    N21      N        0.05740    0.54370    0.69250    1.000
    N22      N        0.01400    0.51120    0.84610    1.000
    N23      N        0.41290    0.56610    0.52580    1.000
    N24      N        0.29850    0.60650    0.54400    1.000
    C66      C        0.10130    0.57780    0.61450    1.000
    C67      C        0.34210    0.54720    0.52910    1.000
    H46      H        0.32470    0.49890    0.52190    1.000
    C68      C        0.10760    0.65120    0.46040    1.000
    C69      C        0.17880    0.57280    0.61750    1.000
    H47      H        0.20260    0.54650    0.66970    1.000
    C70      C        0.21880    0.60800    0.54110    1.000
    C71      C        0.06860    0.54380    0.79540    1.000
    H48      H        0.11010    0.56450    0.82720    1.000
    O11      O        0.99970    0.69880    0.37210    1.000
    C72      C        0.96470    0.48840    0.77010    1.000
    H49      H        0.92050    0.46300    0.78210    1.000
    C73      C        0.06620    0.61760    0.53760    1.000
    H50      H        0.01470    0.62180    0.53750    1.000
    C74      C        0.18510    0.64620    0.46260    1.000
    H51      H        0.21340    0.66860    0.41120    1.000
    C75      C        0.99010    0.50840    0.67630    1.000
    H52      H        0.96700    0.50010    0.61310    1.000
    C76      C        0.41430    0.64150    0.54080    1.000
    H53      H        0.45700    0.67050    0.54310    1.000
    O12      O        0.10980    0.73450    0.31910    1.000
    C77      C        0.34470    0.66720    0.55160    1.000
    H54      H        0.33060    0.71630    0.56220    1.000
    C78      C        0.07180    0.69610    0.37650    1.000
    N25      N        0.04370    0.94260    0.19250    1.000
    N26      N        0.01120    0.98600    0.34610    1.000
    N27      N        0.06610    0.58710    0.02580    1.000
    N28      N        0.10650    0.70150    0.04400    1.000
    C79      C        0.07780    0.89870    0.11450    1.000
    C80      C        0.04720    0.65790    0.02910    1.000
    H55      H        0.99890    0.67530    0.02190    1.000
    C81      C        0.15120    0.89240    0.96040    1.000
    C82      C        0.07280    0.82120    0.11750    1.000
    H56      H        0.04650    0.79740    0.16970    1.000
    C83      C        0.10800    0.78120    0.04110    1.000
    C84      C        0.04380    0.93140    0.29540    1.000
    H57      H        0.06450    0.88990    0.32720    1.000
    O13      O        0.19880    0.00030    0.87210    1.000
    C85      C        0.98840    0.03530    0.27010    1.000
    H58      H        0.96300    0.07950    0.28210    1.000
    C86      C        0.11760    0.93380    0.03760    1.000
    H59      H        0.12180    0.98530    0.03750    1.000
    C87      C        0.14620    0.81490    0.96260    1.000
    H60      H        0.16860    0.78660    0.91120    1.000
    C88      C        0.00840    0.00990    0.17630    1.000
    H61      H        0.00010    0.03300    0.11310    1.000
    C89      C        0.14150    0.58570    0.04080    1.000
    H62      H        0.17050    0.54300    0.04310    1.000
    O14      O        0.23450    0.89020    0.81910    1.000
    C90      C        0.16720    0.65530    0.05160    1.000
    H63      H        0.21630    0.66940    0.06220    1.000
    C91      C        0.19610    0.92820    0.87650    1.000
    N29      N        0.45630    0.55740    0.19250    1.000
    N30      N        0.48880    0.51400    0.34610    1.000
    N31      N        0.43390    0.91290    0.02580    1.000
    N32      N        0.39350    0.79850    0.04400    1.000
    C92      C        0.42220    0.60130    0.11450    1.000
    C93      C        0.45280    0.84210    0.02910    1.000
    H64      H        0.50110    0.82470    0.02190    1.000
    C94      C        0.34880    0.60760    0.96040    1.000
    C95      C        0.42720    0.67880    0.11750    1.000
    H65      H        0.45350    0.70260    0.16970    1.000
    C96      C        0.39200    0.71880    0.04110    1.000
    C97      C        0.45620    0.56860    0.29540    1.000
    H66      H        0.43550    0.61010    0.32720    1.000
    O15      O        0.30120    0.49970    0.87210    1.000
    C98      C        0.51160    0.46470    0.27010    1.000
    H67      H        0.53700    0.42050    0.28210    1.000
    C99      C        0.38240    0.56620    0.03760    1.000
    H68      H        0.37820    0.51470    0.03750    1.000
    C100     C        0.35380    0.68510    0.96260    1.000
    H69      H        0.33140    0.71340    0.91120    1.000
    C101     C        0.49160    0.49010    0.17630    1.000
    H70      H        0.49990    0.46700    0.11310    1.000
    C102     C        0.35850    0.91430    0.04080    1.000
    H71      H        0.32950    0.95700    0.04310    1.000
    O16      O        0.26550    0.60980    0.81910    1.000
    C103     C        0.33280    0.84470    0.05160    1.000
    H72      H        0.28370    0.83060    0.06220    1.000
    C104     C        0.30390    0.57180    0.87650    1.000
    Cu1      Cu       0.00000    0.00000    0.50000    1.000
    Cu2      Cu       0.50000    0.50000    0.50000    1.000
    Cu3      Cu       0.00000    0.50000    0.00000    1.000
    Cu4      Cu       0.50000    0.00000    0.00000    1.000
