# CIF file generated by openbabel 3.1.0, see https://openbabel.org
data_I
_chemical_name_common 'image0'
_cell_length_a 35.2654
_cell_length_b 15.1124
_cell_length_c 30.914
_cell_angle_alpha 90
_cell_angle_beta 102.128
_cell_angle_gamma 90
_space_group_name_H-M_alt 'P 1'
_space_group_name_Hall 'P 1'
loop_
    _symmetry_equiv_pos_as_xyz
    x,y,z
loop_
    _atom_site_label
    _atom_site_type_symbol
    _atom_site_fract_x
    _atom_site_fract_y
    _atom_site_fract_z
    _atom_site_occupancy
    I1       I        0.73988    0.22634    0.30832    1.000
    I2       I        0.52579    0.64800    0.63668    1.000
    I3       I        0.63349    0.17496    0.20499    1.000
    I4       I        0.61545    0.73778    0.56152    1.000
    I5       I        0.89697    0.72878    0.90258    1.000
    I6       I        0.85488    0.58585    0.01048    1.000
    Zn1      Zn       0.57967    0.62016    0.59511    1.000
    Zn2      Zn       0.67741    0.14121    0.28001    1.000
    Zn3      Zn       0.87524    0.58939    0.93649    1.000
    N1       N        0.68862    0.99300    0.78040    1.000
    N2       N        0.83237    0.52840    0.89065    1.000
    N3       N        0.64314    0.15920    0.32600    1.000
    N4       N        0.68222    0.31760    0.74830    1.000
    N5       N        0.41978    0.00020    0.43940    1.000
    N6       N        0.61968    0.54830    0.64072    1.000
    N7       N        0.53693    0.15550    0.41065    1.000
    N8       N        0.71942    0.44480    0.77143    1.000
    N9       N        0.57371    0.28320    0.43847    1.000
    N10      N        0.52077    0.23760    0.46997    1.000
    N11      N        0.56438    0.52170    0.54870    1.000
    N12      N        0.73709    0.30720    0.80700    1.000
    C1       C        0.66592    0.45360    0.70890    1.000
    C2       C        0.51527    0.17230    0.44042    1.000
    C3       C        0.80980    0.57130    0.85750    1.000
    H1       H        0.81420    0.63120    0.85380    1.000
    C4       C        0.69006    0.40250    0.74520    1.000
    C5       C        0.54942    0.29290    0.46636    1.000
    C6       C        0.59322    0.19410    0.38200    1.000
    C7       C        0.77353    0.44030    0.83330    1.000
    C8       C        0.56640    0.21200    0.41207    1.000
    C9       C        0.65380    0.21200    0.36100    1.000
    H2       H        0.67850    0.23670    0.36640    1.000
    C10      C        0.55443    0.37340    0.49467    1.000
    C11      C        0.67240    0.54260    0.70190    1.000
    H3       H        0.69240    0.57240    0.72050    1.000
    C12      C        0.48233    0.11220    0.44050    1.000
    C13      C        0.79760    0.39570    0.86720    1.000
    H4       H        0.79460    0.33530    0.87110    1.000
    C14      C        0.70703    0.27260    0.77870    1.000
    C15      C        0.52907    0.39120    0.52230    1.000
    H5       H        0.50840    0.35350    0.52310    1.000
    C16      C        0.43790    0.03840    0.47660    1.000
    H6       H        0.42940    0.02620    0.50250    1.000
    C17      C        0.72770    0.11950    0.80520    1.000
    H7       H        0.75040    0.14230    0.82260    1.000
    C18      C        0.53514    0.46610    0.54870    1.000
    H8       H        0.51810    0.47800    0.56710    1.000
    C19      C        0.60770    0.12300    0.31900    1.000
    H9       H        0.60010    0.08610    0.29460    1.000
    C20      C        0.74155    0.39440    0.80220    1.000
    C21      C        0.70070    0.17520    0.77980    1.000
    C22      C        0.78020    0.53030    0.82830    1.000
    H10      H        0.76470    0.56230    0.80540    1.000
    C23      C        0.58220    0.13770    0.34610    1.000
    H11      H        0.55800    0.11050    0.34060    1.000
    C24      C        0.66190    0.04770    0.75630    1.000
    H12      H        0.63920    0.02360    0.73970    1.000
    C25      C        0.64910    0.58660    0.66740    1.000
    H13      H        0.65430    0.64570    0.66260    1.000
    C26      C        0.82630    0.44180    0.89500    1.000
    H14      H        0.84220    0.41150    0.91810    1.000
    C27      C        0.66730    0.13780    0.75550    1.000
    H15      H        0.64830    0.17360    0.73850    1.000
    C28      C        0.58370    0.43170    0.49340    1.000
    H16      H        0.60060    0.42200    0.47450    1.000
    C29      C        0.58810    0.50560    0.52060    1.000
    H17      H        0.60810    0.54520    0.51950    1.000
    C30      C        0.62970    0.23160    0.38960    1.000
    H18      H        0.63790    0.26930    0.41360    1.000
    C31      C        0.43180    0.01830    0.40190    1.000
    H19      H        0.41900    0.99210    0.37560    1.000
    C32      C        0.46870    0.09510    0.47870    1.000
    H20      H        0.48020    0.12170    0.50530    1.000
    C33      C        0.63490    0.41400    0.68160    1.000
    H21      H        0.62880    0.35510    0.68570    1.000
    C34      C        0.61290    0.46330    0.64790    1.000
    H22      H        0.59220    0.43570    0.62910    1.000
    C35      C        0.72050    0.02880    0.80430    1.000
    H23      H        0.73890    0.99180    0.82130    1.000
    C36      C        0.46250    0.07420    0.40100    1.000
    H24      H        0.46980    0.08650    0.37450    1.000
    I7       I        0.23988    0.72634    0.30832    1.000
    I8       I        0.02579    0.14800    0.63668    1.000
    I9       I        0.13349    0.67496    0.20499    1.000
    I10      I        0.11545    0.23778    0.56152    1.000
    I11      I        0.39697    0.22878    0.90258    1.000
    I12      I        0.35488    0.08585    0.01048    1.000
    Zn4      Zn       0.07967    0.12016    0.59511    1.000
    Zn5      Zn       0.17741    0.64121    0.28001    1.000
    Zn6      Zn       0.37524    0.08939    0.93649    1.000
    N13      N        0.18862    0.49300    0.78040    1.000
    N14      N        0.33237    0.02840    0.89065    1.000
    N15      N        0.14314    0.65920    0.32600    1.000
    N16      N        0.18222    0.81760    0.74830    1.000
    N17      N        0.91978    0.50020    0.43940    1.000
    N18      N        0.11968    0.04830    0.64072    1.000
    N19      N        0.03693    0.65550    0.41065    1.000
    N20      N        0.21942    0.94480    0.77143    1.000
    N21      N        0.07371    0.78320    0.43847    1.000
    N22      N        0.02077    0.73760    0.46997    1.000
    N23      N        0.06438    0.02170    0.54870    1.000
    N24      N        0.23709    0.80720    0.80700    1.000
    C37      C        0.16592    0.95360    0.70890    1.000
    C38      C        0.01527    0.67230    0.44042    1.000
    C39      C        0.30980    0.07130    0.85750    1.000
    H25      H        0.31420    0.13120    0.85380    1.000
    C40      C        0.19006    0.90250    0.74520    1.000
    C41      C        0.04942    0.79290    0.46636    1.000
    C42      C        0.09322    0.69410    0.38200    1.000
    C43      C        0.27353    0.94030    0.83330    1.000
    C44      C        0.06640    0.71200    0.41207    1.000
    C45      C        0.15380    0.71200    0.36100    1.000
    H26      H        0.17850    0.73670    0.36640    1.000
    C46      C        0.05443    0.87340    0.49467    1.000
    C47      C        0.17240    0.04260    0.70190    1.000
    H27      H        0.19240    0.07240    0.72050    1.000
    C48      C        0.98233    0.61220    0.44050    1.000
    C49      C        0.29760    0.89570    0.86720    1.000
    H28      H        0.29460    0.83530    0.87110    1.000
    C50      C        0.20703    0.77260    0.77870    1.000
    C51      C        0.02907    0.89120    0.52230    1.000
    H29      H        0.00840    0.85350    0.52310    1.000
    C52      C        0.93790    0.53840    0.47660    1.000
    H30      H        0.92940    0.52620    0.50250    1.000
    C53      C        0.22770    0.61950    0.80520    1.000
    H31      H        0.25040    0.64230    0.82260    1.000
    C54      C        0.03514    0.96610    0.54870    1.000
    H32      H        0.01810    0.97800    0.56710    1.000
    C55      C        0.10770    0.62300    0.31900    1.000
    H33      H        0.10010    0.58610    0.29460    1.000
    C56      C        0.24155    0.89440    0.80220    1.000
    C57      C        0.20070    0.67520    0.77980    1.000
    C58      C        0.28020    0.03030    0.82830    1.000
    H34      H        0.26470    0.06230    0.80540    1.000
    C59      C        0.08220    0.63770    0.34610    1.000
    H35      H        0.05800    0.61050    0.34060    1.000
    C60      C        0.16190    0.54770    0.75630    1.000
    H36      H        0.13920    0.52360    0.73970    1.000
    C61      C        0.14910    0.08660    0.66740    1.000
    H37      H        0.15430    0.14570    0.66260    1.000
    C62      C        0.32630    0.94180    0.89500    1.000
    H38      H        0.34220    0.91150    0.91810    1.000
    C63      C        0.16730    0.63780    0.75550    1.000
    H39      H        0.14830    0.67360    0.73850    1.000
    C64      C        0.08370    0.93170    0.49340    1.000
    H40      H        0.10060    0.92200    0.47450    1.000
    C65      C        0.08810    0.00560    0.52060    1.000
    H41      H        0.10810    0.04520    0.51950    1.000
    C66      C        0.12970    0.73160    0.38960    1.000
    H42      H        0.13790    0.76930    0.41360    1.000
    C67      C        0.93180    0.51830    0.40190    1.000
    H43      H        0.91900    0.49210    0.37560    1.000
    C68      C        0.96870    0.59510    0.47870    1.000
    H44      H        0.98020    0.62170    0.50530    1.000
    C69      C        0.13490    0.91400    0.68160    1.000
    H45      H        0.12880    0.85510    0.68570    1.000
    C70      C        0.11290    0.96330    0.64790    1.000
    H46      H        0.09220    0.93570    0.62910    1.000
    C71      C        0.22050    0.52880    0.80430    1.000
    H47      H        0.23890    0.49180    0.82130    1.000
    C72      C        0.96250    0.57420    0.40100    1.000
    H48      H        0.96980    0.58650    0.37450    1.000
    I13      I        0.73988    0.77366    0.80832    1.000
    I14      I        0.52579    0.35200    0.13668    1.000
    I15      I        0.63349    0.82504    0.70499    1.000
    I16      I        0.61545    0.26222    0.06152    1.000
    I17      I        0.89697    0.27122    0.40258    1.000
    I18      I        0.85488    0.41415    0.51048    1.000
    Zn7      Zn       0.57967    0.37984    0.09511    1.000
    Zn8      Zn       0.67741    0.85879    0.78001    1.000
    Zn9      Zn       0.87524    0.41061    0.43649    1.000
    N25      N        0.68862    0.00700    0.28040    1.000
    N26      N        0.83237    0.47160    0.39065    1.000
    N27      N        0.64314    0.84080    0.82600    1.000
    N28      N        0.68222    0.68240    0.24830    1.000
    N29      N        0.41978    0.99980    0.93940    1.000
    N30      N        0.61968    0.45170    0.14072    1.000
    N31      N        0.53693    0.84450    0.91065    1.000
    N32      N        0.71942    0.55520    0.27143    1.000
    N33      N        0.57371    0.71680    0.93847    1.000
    N34      N        0.52077    0.76240    0.96997    1.000
    N35      N        0.56438    0.47830    0.04870    1.000
    N36      N        0.73709    0.69280    0.30700    1.000
    C73      C        0.66592    0.54640    0.20890    1.000
    C74      C        0.51527    0.82770    0.94042    1.000
    C75      C        0.80980    0.42870    0.35750    1.000
    H49      H        0.81420    0.36880    0.35380    1.000
    C76      C        0.69006    0.59750    0.24520    1.000
    C77      C        0.54942    0.70710    0.96636    1.000
    C78      C        0.59322    0.80590    0.88200    1.000
    C79      C        0.77353    0.55970    0.33330    1.000
    C80      C        0.56640    0.78800    0.91207    1.000
    C81      C        0.65380    0.78800    0.86100    1.000
    H50      H        0.67850    0.76330    0.86640    1.000
    C82      C        0.55443    0.62660    0.99467    1.000
    C83      C        0.67240    0.45740    0.20190    1.000
    H51      H        0.69240    0.42760    0.22050    1.000
    C84      C        0.48233    0.88780    0.94050    1.000
    C85      C        0.79760    0.60430    0.36720    1.000
    H52      H        0.79460    0.66470    0.37110    1.000
    C86      C        0.70703    0.72740    0.27870    1.000
    C87      C        0.52907    0.60880    0.02230    1.000
    H53      H        0.50840    0.64650    0.02310    1.000
    C88      C        0.43790    0.96160    0.97660    1.000
    H54      H        0.42940    0.97380    0.00250    1.000
    C89      C        0.72770    0.88050    0.30520    1.000
    H55      H        0.75040    0.85770    0.32260    1.000
    C90      C        0.53514    0.53390    0.04870    1.000
    H56      H        0.51810    0.52200    0.06710    1.000
    C91      C        0.60770    0.87700    0.81900    1.000
    H57      H        0.60010    0.91390    0.79460    1.000
    C92      C        0.74155    0.60560    0.30220    1.000
    C93      C        0.70070    0.82480    0.27980    1.000
    C94      C        0.78020    0.46970    0.32830    1.000
    H58      H        0.76470    0.43770    0.30540    1.000
    C95      C        0.58220    0.86230    0.84610    1.000
    H59      H        0.55800    0.88950    0.84060    1.000
    C96      C        0.66190    0.95230    0.25630    1.000
    H60      H        0.63920    0.97640    0.23970    1.000
    C97      C        0.64910    0.41340    0.16740    1.000
    H61      H        0.65430    0.35430    0.16260    1.000
    C98      C        0.82630    0.55820    0.39500    1.000
    H62      H        0.84220    0.58850    0.41810    1.000
    C99      C        0.66730    0.86220    0.25550    1.000
    H63      H        0.64830    0.82640    0.23850    1.000
    C100     C        0.58370    0.56830    0.99340    1.000
    H64      H        0.60060    0.57800    0.97450    1.000
    C101     C        0.58810    0.49440    0.02060    1.000
    H65      H        0.60810    0.45480    0.01950    1.000
    C102     C        0.62970    0.76840    0.88960    1.000
    H66      H        0.63790    0.73070    0.91360    1.000
    C103     C        0.43180    0.98170    0.90190    1.000
    H67      H        0.41900    0.00790    0.87560    1.000
    C104     C        0.46870    0.90490    0.97870    1.000
    H68      H        0.48020    0.87830    0.00530    1.000
    C105     C        0.63490    0.58600    0.18160    1.000
    H69      H        0.62880    0.64490    0.18570    1.000
    C106     C        0.61290    0.53670    0.14790    1.000
    H70      H        0.59220    0.56430    0.12910    1.000
    C107     C        0.72050    0.97120    0.30430    1.000
    H71      H        0.73890    0.00820    0.32130    1.000
    C108     C        0.46250    0.92580    0.90100    1.000
    H72      H        0.46980    0.91350    0.87450    1.000
    I19      I        0.23988    0.27366    0.80832    1.000
    I20      I        0.02579    0.85200    0.13668    1.000
    I21      I        0.13349    0.32504    0.70499    1.000
    I22      I        0.11545    0.76222    0.06152    1.000
    I23      I        0.39697    0.77122    0.40258    1.000
    I24      I        0.35488    0.91415    0.51048    1.000
    Zn10     Zn       0.07967    0.87984    0.09511    1.000
    Zn11     Zn       0.17741    0.35879    0.78001    1.000
    Zn12     Zn       0.37524    0.91061    0.43649    1.000
    N37      N        0.18862    0.50700    0.28040    1.000
    N38      N        0.33237    0.97160    0.39065    1.000
    N39      N        0.14314    0.34080    0.82600    1.000
    N40      N        0.18222    0.18240    0.24830    1.000
    N41      N        0.91978    0.49980    0.93940    1.000
    N42      N        0.11968    0.95170    0.14072    1.000
    N43      N        0.03693    0.34450    0.91065    1.000
    N44      N        0.21942    0.05520    0.27143    1.000
    N45      N        0.07371    0.21680    0.93847    1.000
    N46      N        0.02077    0.26240    0.96997    1.000
    N47      N        0.06438    0.97830    0.04870    1.000
    N48      N        0.23709    0.19280    0.30700    1.000
    C109     C        0.16592    0.04640    0.20890    1.000
    C110     C        0.01527    0.32770    0.94042    1.000
    C111     C        0.30980    0.92870    0.35750    1.000
    H73      H        0.31420    0.86880    0.35380    1.000
    C112     C        0.19006    0.09750    0.24520    1.000
    C113     C        0.04942    0.20710    0.96636    1.000
    C114     C        0.09322    0.30590    0.88200    1.000
    C115     C        0.27353    0.05970    0.33330    1.000
    C116     C        0.06640    0.28800    0.91207    1.000
    C117     C        0.15380    0.28800    0.86100    1.000
    H74      H        0.17850    0.26330    0.86640    1.000
    C118     C        0.05443    0.12660    0.99467    1.000
    C119     C        0.17240    0.95740    0.20190    1.000
    H75      H        0.19240    0.92760    0.22050    1.000
    C120     C        0.98233    0.38780    0.94050    1.000
    C121     C        0.29760    0.10430    0.36720    1.000
    H76      H        0.29460    0.16470    0.37110    1.000
    C122     C        0.20703    0.22740    0.27870    1.000
    C123     C        0.02907    0.10880    0.02230    1.000
    H77      H        0.00840    0.14650    0.02310    1.000
    C124     C        0.93790    0.46160    0.97660    1.000
    H78      H        0.92940    0.47380    0.00250    1.000
    C125     C        0.22770    0.38050    0.30520    1.000
    H79      H        0.25040    0.35770    0.32260    1.000
    C126     C        0.03514    0.03390    0.04870    1.000
    H80      H        0.01810    0.02200    0.06710    1.000
    C127     C        0.10770    0.37700    0.81900    1.000
    H81      H        0.10010    0.41390    0.79460    1.000
    C128     C        0.24155    0.10560    0.30220    1.000
    C129     C        0.20070    0.32480    0.27980    1.000
    C130     C        0.28020    0.96970    0.32830    1.000
    H82      H        0.26470    0.93770    0.30540    1.000
    C131     C        0.08220    0.36230    0.84610    1.000
    H83      H        0.05800    0.38950    0.84060    1.000
    C132     C        0.16190    0.45230    0.25630    1.000
    H84      H        0.13920    0.47640    0.23970    1.000
    C133     C        0.14910    0.91340    0.16740    1.000
    H85      H        0.15430    0.85430    0.16260    1.000
    C134     C        0.32630    0.05820    0.39500    1.000
    H86      H        0.34220    0.08850    0.41810    1.000
    C135     C        0.16730    0.36220    0.25550    1.000
    H87      H        0.14830    0.32640    0.23850    1.000
    C136     C        0.08370    0.06830    0.99340    1.000
    H88      H        0.10060    0.07800    0.97450    1.000
    C137     C        0.08810    0.99440    0.02060    1.000
    H89      H        0.10810    0.95480    0.01950    1.000
    C138     C        0.12970    0.26840    0.88960    1.000
    H90      H        0.13790    0.23070    0.91360    1.000
    C139     C        0.93180    0.48170    0.90190    1.000
    H91      H        0.91900    0.50790    0.87560    1.000
    C140     C        0.96870    0.40490    0.97870    1.000
    H92      H        0.98020    0.37830    0.00530    1.000
    C141     C        0.13490    0.08600    0.18160    1.000
    H93      H        0.12880    0.14490    0.18570    1.000
    C142     C        0.11290    0.03670    0.14790    1.000
    H94      H        0.09220    0.06430    0.12910    1.000
    C143     C        0.22050    0.47120    0.30430    1.000
    H95      H        0.23890    0.50820    0.32130    1.000
    C144     C        0.96250    0.42580    0.90100    1.000
    H96      H        0.96980    0.41350    0.87450    1.000
    I25      I        0.26012    0.22634    0.19168    1.000
    I26      I        0.47421    0.64800    0.86332    1.000
    I27      I        0.36651    0.17496    0.29501    1.000
    I28      I        0.38455    0.73778    0.93848    1.000
    I29      I        0.10303    0.72878    0.59742    1.000
    I30      I        0.14512    0.58585    0.48952    1.000
    Zn13     Zn       0.42033    0.62016    0.90489    1.000
    Zn14     Zn       0.32259    0.14121    0.21999    1.000
    Zn15     Zn       0.12476    0.58939    0.56351    1.000
    N49      N        0.31138    0.99300    0.71960    1.000
    N50      N        0.16763    0.52840    0.60935    1.000
    N51      N        0.35686    0.15920    0.17400    1.000
    N52      N        0.31778    0.31760    0.75170    1.000
    N53      N        0.58022    0.00020    0.06060    1.000
    N54      N        0.38032    0.54830    0.85928    1.000
    N55      N        0.46307    0.15550    0.08935    1.000
    N56      N        0.28058    0.44480    0.72857    1.000
    N57      N        0.42629    0.28320    0.06153    1.000
    N58      N        0.47923    0.23760    0.03003    1.000
    N59      N        0.43562    0.52170    0.95130    1.000
    N60      N        0.26291    0.30720    0.69300    1.000
    C145     C        0.33408    0.45360    0.79110    1.000
    C146     C        0.48473    0.17230    0.05958    1.000
    C147     C        0.19020    0.57130    0.64250    1.000
    H97      H        0.18580    0.63120    0.64620    1.000
    C148     C        0.30994    0.40250    0.75480    1.000
    C149     C        0.45058    0.29290    0.03364    1.000
    C150     C        0.40678    0.19410    0.11800    1.000
    C151     C        0.22647    0.44030    0.66670    1.000
    C152     C        0.43360    0.21200    0.08793    1.000
    C153     C        0.34620    0.21200    0.13900    1.000
    H98      H        0.32150    0.23670    0.13360    1.000
    C154     C        0.44557    0.37340    0.00533    1.000
    C155     C        0.32760    0.54260    0.79810    1.000
    H99      H        0.30760    0.57240    0.77950    1.000
    C156     C        0.51767    0.11220    0.05950    1.000
    C157     C        0.20240    0.39570    0.63280    1.000
    H100     H        0.20540    0.33530    0.62890    1.000
    C158     C        0.29297    0.27260    0.72130    1.000
    C159     C        0.47093    0.39120    0.97770    1.000
    H101     H        0.49160    0.35350    0.97690    1.000
    C160     C        0.56210    0.03840    0.02340    1.000
    H102     H        0.57060    0.02620    0.99750    1.000
    C161     C        0.27230    0.11950    0.69480    1.000
    H103     H        0.24960    0.14230    0.67740    1.000
    C162     C        0.46486    0.46610    0.95130    1.000
    H104     H        0.48190    0.47800    0.93290    1.000
    C163     C        0.39230    0.12300    0.18100    1.000
    H105     H        0.39990    0.08610    0.20540    1.000
    C164     C        0.25845    0.39440    0.69780    1.000
    C165     C        0.29930    0.17520    0.72020    1.000
    C166     C        0.21980    0.53030    0.67170    1.000
    H106     H        0.23530    0.56230    0.69460    1.000
    C167     C        0.41780    0.13770    0.15390    1.000
    H107     H        0.44200    0.11050    0.15940    1.000
    C168     C        0.33810    0.04770    0.74370    1.000
    H108     H        0.36080    0.02360    0.76030    1.000
    C169     C        0.35090    0.58660    0.83260    1.000
    H109     H        0.34570    0.64570    0.83740    1.000
    C170     C        0.17370    0.44180    0.60500    1.000
    H110     H        0.15780    0.41150    0.58190    1.000
    C171     C        0.33270    0.13780    0.74450    1.000
    H111     H        0.35170    0.17360    0.76150    1.000
    C172     C        0.41630    0.43170    0.00660    1.000
    H112     H        0.39940    0.42200    0.02550    1.000
    C173     C        0.41190    0.50560    0.97940    1.000
    H113     H        0.39190    0.54520    0.98050    1.000
    C174     C        0.37030    0.23160    0.11040    1.000
    H114     H        0.36210    0.26930    0.08640    1.000
    C175     C        0.56820    0.01830    0.09810    1.000
    H115     H        0.58100    0.99210    0.12440    1.000
    C176     C        0.53130    0.09510    0.02130    1.000
    H116     H        0.51980    0.12170    0.99470    1.000
    C177     C        0.36510    0.41400    0.81840    1.000
    H117     H        0.37120    0.35510    0.81430    1.000
    C178     C        0.38710    0.46330    0.85210    1.000
    H118     H        0.40780    0.43570    0.87090    1.000
    C179     C        0.27950    0.02880    0.69570    1.000
    H119     H        0.26110    0.99180    0.67870    1.000
    C180     C        0.53750    0.07420    0.09900    1.000
    H120     H        0.53020    0.08650    0.12550    1.000
    I31      I        0.76012    0.72634    0.19168    1.000
    I32      I        0.97421    0.14800    0.86332    1.000
    I33      I        0.86651    0.67496    0.29501    1.000
    I34      I        0.88455    0.23778    0.93848    1.000
    I35      I        0.60303    0.22878    0.59742    1.000
    I36      I        0.64512    0.08585    0.48952    1.000
    Zn16     Zn       0.92033    0.12016    0.90489    1.000
    Zn17     Zn       0.82259    0.64121    0.21999    1.000
    Zn18     Zn       0.62476    0.08939    0.56351    1.000
    N61      N        0.81138    0.49300    0.71960    1.000
    N62      N        0.66763    0.02840    0.60935    1.000
    N63      N        0.85686    0.65920    0.17400    1.000
    N64      N        0.81778    0.81760    0.75170    1.000
    N65      N        0.08022    0.50020    0.06060    1.000
    N66      N        0.88032    0.04830    0.85928    1.000
    N67      N        0.96307    0.65550    0.08935    1.000
    N68      N        0.78058    0.94480    0.72857    1.000
    N69      N        0.92629    0.78320    0.06153    1.000
    N70      N        0.97923    0.73760    0.03003    1.000
    N71      N        0.93562    0.02170    0.95130    1.000
    N72      N        0.76291    0.80720    0.69300    1.000
    C181     C        0.83408    0.95360    0.79110    1.000
    C182     C        0.98473    0.67230    0.05958    1.000
    C183     C        0.69020    0.07130    0.64250    1.000
    H121     H        0.68580    0.13120    0.64620    1.000
    C184     C        0.80994    0.90250    0.75480    1.000
    C185     C        0.95058    0.79290    0.03364    1.000
    C186     C        0.90678    0.69410    0.11800    1.000
    C187     C        0.72647    0.94030    0.66670    1.000
    C188     C        0.93360    0.71200    0.08793    1.000
    C189     C        0.84620    0.71200    0.13900    1.000
    H122     H        0.82150    0.73670    0.13360    1.000
    C190     C        0.94557    0.87340    0.00533    1.000
    C191     C        0.82760    0.04260    0.79810    1.000
    H123     H        0.80760    0.07240    0.77950    1.000
    C192     C        0.01767    0.61220    0.05950    1.000
    C193     C        0.70240    0.89570    0.63280    1.000
    H124     H        0.70540    0.83530    0.62890    1.000
    C194     C        0.79297    0.77260    0.72130    1.000
    C195     C        0.97093    0.89120    0.97770    1.000
    H125     H        0.99160    0.85350    0.97690    1.000
    C196     C        0.06210    0.53840    0.02340    1.000
    H126     H        0.07060    0.52620    0.99750    1.000
    C197     C        0.77230    0.61950    0.69480    1.000
    H127     H        0.74960    0.64230    0.67740    1.000
    C198     C        0.96486    0.96610    0.95130    1.000
    H128     H        0.98190    0.97800    0.93290    1.000
    C199     C        0.89230    0.62300    0.18100    1.000
    H129     H        0.89990    0.58610    0.20540    1.000
    C200     C        0.75845    0.89440    0.69780    1.000
    C201     C        0.79930    0.67520    0.72020    1.000
    C202     C        0.71980    0.03030    0.67170    1.000
    H130     H        0.73530    0.06230    0.69460    1.000
    C203     C        0.91780    0.63770    0.15390    1.000
    H131     H        0.94200    0.61050    0.15940    1.000
    C204     C        0.83810    0.54770    0.74370    1.000
    H132     H        0.86080    0.52360    0.76030    1.000
    C205     C        0.85090    0.08660    0.83260    1.000
    H133     H        0.84570    0.14570    0.83740    1.000
    C206     C        0.67370    0.94180    0.60500    1.000
    H134     H        0.65780    0.91150    0.58190    1.000
    C207     C        0.83270    0.63780    0.74450    1.000
    H135     H        0.85170    0.67360    0.76150    1.000
    C208     C        0.91630    0.93170    0.00660    1.000
    H136     H        0.89940    0.92200    0.02550    1.000
    C209     C        0.91190    0.00560    0.97940    1.000
    H137     H        0.89190    0.04520    0.98050    1.000
    C210     C        0.87030    0.73160    0.11040    1.000
    H138     H        0.86210    0.76930    0.08640    1.000
    C211     C        0.06820    0.51830    0.09810    1.000
    H139     H        0.08100    0.49210    0.12440    1.000
    C212     C        0.03130    0.59510    0.02130    1.000
    H140     H        0.01980    0.62170    0.99470    1.000
    C213     C        0.86510    0.91400    0.81840    1.000
    H141     H        0.87120    0.85510    0.81430    1.000
    C214     C        0.88710    0.96330    0.85210    1.000
    H142     H        0.90780    0.93570    0.87090    1.000
    C215     C        0.77950    0.52880    0.69570    1.000
    H143     H        0.76110    0.49180    0.67870    1.000
    C216     C        0.03750    0.57420    0.09900    1.000
    H144     H        0.03020    0.58650    0.12550    1.000
    I37      I        0.26012    0.77366    0.69168    1.000
    I38      I        0.47421    0.35200    0.36332    1.000
    I39      I        0.36651    0.82504    0.79501    1.000
    I40      I        0.38455    0.26222    0.43848    1.000
    I41      I        0.10303    0.27122    0.09742    1.000
    I42      I        0.14512    0.41415    0.98952    1.000
    Zn19     Zn       0.42033    0.37984    0.40489    1.000
    Zn20     Zn       0.32259    0.85879    0.71999    1.000
    Zn21     Zn       0.12476    0.41061    0.06351    1.000
    N73      N        0.31138    0.00700    0.21960    1.000
    N74      N        0.16763    0.47160    0.10935    1.000
    N75      N        0.35686    0.84080    0.67400    1.000
    N76      N        0.31778    0.68240    0.25170    1.000
    N77      N        0.58022    0.99980    0.56060    1.000
    N78      N        0.38032    0.45170    0.35928    1.000
    N79      N        0.46307    0.84450    0.58935    1.000
    N80      N        0.28058    0.55520    0.22857    1.000
    N81      N        0.42629    0.71680    0.56153    1.000
    N82      N        0.47923    0.76240    0.53003    1.000
    N83      N        0.43562    0.47830    0.45130    1.000
    N84      N        0.26291    0.69280    0.19300    1.000
    C217     C        0.33408    0.54640    0.29110    1.000
    C218     C        0.48473    0.82770    0.55958    1.000
    C219     C        0.19020    0.42870    0.14250    1.000
    H145     H        0.18580    0.36880    0.14620    1.000
    C220     C        0.30994    0.59750    0.25480    1.000
    C221     C        0.45058    0.70710    0.53364    1.000
    C222     C        0.40678    0.80590    0.61800    1.000
    C223     C        0.22647    0.55970    0.16670    1.000
    C224     C        0.43360    0.78800    0.58793    1.000
    C225     C        0.34620    0.78800    0.63900    1.000
    H146     H        0.32150    0.76330    0.63360    1.000
    C226     C        0.44557    0.62660    0.50533    1.000
    C227     C        0.32760    0.45740    0.29810    1.000
    H147     H        0.30760    0.42760    0.27950    1.000
    C228     C        0.51767    0.88780    0.55950    1.000
    C229     C        0.20240    0.60430    0.13280    1.000
    H148     H        0.20540    0.66470    0.12890    1.000
    C230     C        0.29297    0.72740    0.22130    1.000
    C231     C        0.47093    0.60880    0.47770    1.000
    H149     H        0.49160    0.64650    0.47690    1.000
    C232     C        0.56210    0.96160    0.52340    1.000
    H150     H        0.57060    0.97380    0.49750    1.000
    C233     C        0.27230    0.88050    0.19480    1.000
    H151     H        0.24960    0.85770    0.17740    1.000
    C234     C        0.46486    0.53390    0.45130    1.000
    H152     H        0.48190    0.52200    0.43290    1.000
    C235     C        0.39230    0.87700    0.68100    1.000
    H153     H        0.39990    0.91390    0.70540    1.000
    C236     C        0.25845    0.60560    0.19780    1.000
    C237     C        0.29930    0.82480    0.22020    1.000
    C238     C        0.21980    0.46970    0.17170    1.000
    H154     H        0.23530    0.43770    0.19460    1.000
    C239     C        0.41780    0.86230    0.65390    1.000
    H155     H        0.44200    0.88950    0.65940    1.000
    C240     C        0.33810    0.95230    0.24370    1.000
    H156     H        0.36080    0.97640    0.26030    1.000
    C241     C        0.35090    0.41340    0.33260    1.000
    H157     H        0.34570    0.35430    0.33740    1.000
    C242     C        0.17370    0.55820    0.10500    1.000
    H158     H        0.15780    0.58850    0.08190    1.000
    C243     C        0.33270    0.86220    0.24450    1.000
    H159     H        0.35170    0.82640    0.26150    1.000
    C244     C        0.41630    0.56830    0.50660    1.000
    H160     H        0.39940    0.57800    0.52550    1.000
    C245     C        0.41190    0.49440    0.47940    1.000
    H161     H        0.39190    0.45480    0.48050    1.000
    C246     C        0.37030    0.76840    0.61040    1.000
    H162     H        0.36210    0.73070    0.58640    1.000
    C247     C        0.56820    0.98170    0.59810    1.000
    H163     H        0.58100    0.00790    0.62440    1.000
    C248     C        0.53130    0.90490    0.52130    1.000
    H164     H        0.51980    0.87830    0.49470    1.000
    C249     C        0.36510    0.58600    0.31840    1.000
    H165     H        0.37120    0.64490    0.31430    1.000
    C250     C        0.38710    0.53670    0.35210    1.000
    H166     H        0.40780    0.56430    0.37090    1.000
    C251     C        0.27950    0.97120    0.19570    1.000
    H167     H        0.26110    0.00820    0.17870    1.000
    C252     C        0.53750    0.92580    0.59900    1.000
    H168     H        0.53020    0.91350    0.62550    1.000
    I43      I        0.76012    0.27366    0.69168    1.000
    I44      I        0.97421    0.85200    0.36332    1.000
    I45      I        0.86651    0.32504    0.79501    1.000
    I46      I        0.88455    0.76222    0.43848    1.000
    I47      I        0.60303    0.77122    0.09742    1.000
    I48      I        0.64512    0.91415    0.98952    1.000
    Zn22     Zn       0.92033    0.87984    0.40489    1.000
    Zn23     Zn       0.82259    0.35879    0.71999    1.000
    Zn24     Zn       0.62476    0.91061    0.06351    1.000
    N85      N        0.81138    0.50700    0.21960    1.000
    N86      N        0.66763    0.97160    0.10935    1.000
    N87      N        0.85686    0.34080    0.67400    1.000
    N88      N        0.81778    0.18240    0.25170    1.000
    N89      N        0.08022    0.49980    0.56060    1.000
    N90      N        0.88032    0.95170    0.35928    1.000
    N91      N        0.96307    0.34450    0.58935    1.000
    N92      N        0.78058    0.05520    0.22857    1.000
    N93      N        0.92629    0.21680    0.56153    1.000
    N94      N        0.97923    0.26240    0.53003    1.000
    N95      N        0.93562    0.97830    0.45130    1.000
    N96      N        0.76291    0.19280    0.19300    1.000
    C253     C        0.83408    0.04640    0.29110    1.000
    C254     C        0.98473    0.32770    0.55958    1.000
    C255     C        0.69020    0.92870    0.14250    1.000
    H169     H        0.68580    0.86880    0.14620    1.000
    C256     C        0.80994    0.09750    0.25480    1.000
    C257     C        0.95058    0.20710    0.53364    1.000
    C258     C        0.90678    0.30590    0.61800    1.000
    C259     C        0.72647    0.05970    0.16670    1.000
    C260     C        0.93360    0.28800    0.58793    1.000
    C261     C        0.84620    0.28800    0.63900    1.000
    H170     H        0.82150    0.26330    0.63360    1.000
    C262     C        0.94557    0.12660    0.50533    1.000
    C263     C        0.82760    0.95740    0.29810    1.000
    H171     H        0.80760    0.92760    0.27950    1.000
    C264     C        0.01767    0.38780    0.55950    1.000
    C265     C        0.70240    0.10430    0.13280    1.000
    H172     H        0.70540    0.16470    0.12890    1.000
    C266     C        0.79297    0.22740    0.22130    1.000
    C267     C        0.97093    0.10880    0.47770    1.000
    H173     H        0.99160    0.14650    0.47690    1.000
    C268     C        0.06210    0.46160    0.52340    1.000
    H174     H        0.07060    0.47380    0.49750    1.000
    C269     C        0.77230    0.38050    0.19480    1.000
    H175     H        0.74960    0.35770    0.17740    1.000
    C270     C        0.96486    0.03390    0.45130    1.000
    H176     H        0.98190    0.02200    0.43290    1.000
    C271     C        0.89230    0.37700    0.68100    1.000
    H177     H        0.89990    0.41390    0.70540    1.000
    C272     C        0.75845    0.10560    0.19780    1.000
    C273     C        0.79930    0.32480    0.22020    1.000
    C274     C        0.71980    0.96970    0.17170    1.000
    H178     H        0.73530    0.93770    0.19460    1.000
    C275     C        0.91780    0.36230    0.65390    1.000
    H179     H        0.94200    0.38950    0.65940    1.000
    C276     C        0.83810    0.45230    0.24370    1.000
    H180     H        0.86080    0.47640    0.26030    1.000
    C277     C        0.85090    0.91340    0.33260    1.000
    H181     H        0.84570    0.85430    0.33740    1.000
    C278     C        0.67370    0.05820    0.10500    1.000
    H182     H        0.65780    0.08850    0.08190    1.000
    C279     C        0.83270    0.36220    0.24450    1.000
    H183     H        0.85170    0.32640    0.26150    1.000
    C280     C        0.91630    0.06830    0.50660    1.000
    H184     H        0.89940    0.07800    0.52550    1.000
    C281     C        0.91190    0.99440    0.47940    1.000
    H185     H        0.89190    0.95480    0.48050    1.000
    C282     C        0.87030    0.26840    0.61040    1.000
    H186     H        0.86210    0.23070    0.58640    1.000
    C283     C        0.06820    0.48170    0.59810    1.000
    H187     H        0.08100    0.50790    0.62440    1.000
    C284     C        0.03130    0.40490    0.52130    1.000
    H188     H        0.01980    0.37830    0.49470    1.000
    C285     C        0.86510    0.08600    0.31840    1.000
    H189     H        0.87120    0.14490    0.31430    1.000
    C286     C        0.88710    0.03670    0.35210    1.000
    H190     H        0.90780    0.06430    0.37090    1.000
    C287     C        0.77950    0.47120    0.19570    1.000
    H191     H        0.76110    0.50820    0.17870    1.000
    C288     C        0.03750    0.42580    0.59900    1.000
    H192     H        0.03020    0.41350    0.62550    1.000
