# CIF file generated by openbabel 3.1.0, see https://openbabel.org
data_I
_chemical_name_common 'image0'
_cell_length_a 27.2925
_cell_length_b 27.8988
_cell_length_c 16.2886
_cell_angle_alpha 90
_cell_angle_beta 100.1
_cell_angle_gamma 90
_space_group_name_H-M_alt 'P 1'
_space_group_name_Hall 'P 1'
loop_
    _symmetry_equiv_pos_as_xyz
    x,y,z
loop_
    _atom_site_label
    _atom_site_type_symbol
    _atom_site_fract_x
    _atom_site_fract_y
    _atom_site_fract_z
    _atom_site_occupancy
    C1       C        0.17270    0.43570    0.30710    1.000
    C2       C        0.21070    0.39910    0.30560    1.000
    C3       C        0.23830    0.38010    0.37930    1.000
    H1       H        0.23270    0.39220    0.43010    1.000
    C4       C        0.27220    0.34570    0.37980    1.000
    H2       H        0.28880    0.33380    0.43050    1.000
    C5       C        0.28370    0.32650    0.30360    1.000
    C6       C        0.25510    0.34640    0.22620    1.000
    H3       H        0.25920    0.33440    0.17450    1.000
    C7       C        0.22320    0.38170    0.23130    1.000
    H4       H        0.20800    0.39600    0.18180    1.000
    C8       C        0.49090    0.12310    0.37210    1.000
    H5       H        0.50760    0.10990    0.42170    1.000
    C9       C        0.45770    0.16000    0.37560    1.000
    H6       H        0.45390    0.17290    0.42670    1.000
    C10      C        0.43010    0.17760    0.30220    1.000
    C11      C        0.43910    0.15960    0.22910    1.000
    H7       H        0.42230    0.17250    0.17950    1.000
    C12      C        0.47210    0.12320    0.22560    1.000
    H8       H        0.47570    0.11040    0.17430    1.000
    C13      C        0.50030    0.10520    0.29860    1.000
    C14      C        0.53730    0.06670    0.29450    1.000
    C15      C        0.32060    0.28770    0.30090    1.000
    C16      C        0.36570    0.29320    0.35690    1.000
    C17      C        0.40330    0.25500    0.35160    1.000
    C18      C        0.39280    0.21610    0.30360    1.000
    C19      C        0.34320    0.21110    0.24950    1.000
    C20      C        0.29910    0.24920    0.23440    1.000
    C21      C        0.25070    0.19950    0.14110    1.000
    H9       H        0.23760    0.17340    0.17010    1.000
    H10      H        0.27950    0.18880    0.11860    1.000
    C22      C        0.20760    0.22490    0.06940    1.000
    H11      H        0.22120    0.25300    0.04630    1.000
    H12      H        0.19640    0.20250    0.02440    1.000
    C23      C        0.16350    0.23940    0.11280    1.000
    H13      H        0.14540    0.20950    0.11350    1.000
    H14      H        0.17960    0.24440    0.17010    1.000
    C24      C        0.13020    0.26950    0.10350    1.000
    H15      H        0.10350    0.25410    0.06550    1.000
    H16      H        0.14260    0.29440    0.07100    1.000
    C25      C        0.10040    0.30020    0.16840    1.000
    H17      H        0.11030    0.33360    0.17290    1.000
    H18      H        0.06450    0.29790    0.15270    1.000
    C26      C        0.12150    0.27010    0.25310    1.000
    H19      H        0.10790    0.28310    0.29880    1.000
    H20      H        0.15710    0.27240    0.26510    1.000
    H21      H        0.11190    0.23710    0.24520    1.000
    C27      C        0.44780    0.28940    0.48650    1.000
    H22      H        0.42220    0.31270    0.46630    1.000
    H23      H        0.43190    0.26740    0.51970    1.000
    C28      C        0.47140    0.31080    0.53740    1.000
    H24      H        0.46940    0.29330    0.58820    1.000
    C29      C        0.46860    0.36470    0.56180    1.000
    H25      H        0.46700    0.36500    0.62080    1.000
    H26      H        0.50070    0.37840    0.55680    1.000
    C30      C        0.43000    0.40070    0.52170    1.000
    H27      H        0.40410    0.40610    0.55460    1.000
    H28      H        0.41520    0.39190    0.46520    1.000
    C31      C        0.46760    0.44520    0.52510    1.000
    H29      H        0.50270    0.43740    0.53870    1.000
    H30      H        0.45900    0.47330    0.55460    1.000
    O1       O        0.16520    0.44980    0.37800    1.000
    O2       O        0.14880    0.44990    0.23860    1.000
    O3       O        0.56010    0.05120    0.36260    1.000
    O4       O        0.54370    0.05090    0.22560    1.000
    O5       O        0.44710    0.26110    0.41230    1.000
    O6       O        0.26030    0.24050    0.19010    1.000
    H31      H        0.50520    0.30640    0.52780    1.000
    C32      C        0.67270    0.93570    0.30710    1.000
    C33      C        0.71070    0.89910    0.30560    1.000
    C34      C        0.73830    0.88010    0.37930    1.000
    H32      H        0.73270    0.89220    0.43010    1.000
    C35      C        0.77220    0.84570    0.37980    1.000
    H33      H        0.78880    0.83380    0.43050    1.000
    C36      C        0.78370    0.82650    0.30360    1.000
    C37      C        0.75510    0.84640    0.22620    1.000
    H34      H        0.75920    0.83440    0.17450    1.000
    C38      C        0.72320    0.88170    0.23130    1.000
    H35      H        0.70800    0.89600    0.18180    1.000
    C39      C        0.99090    0.62310    0.37210    1.000
    H36      H        0.00760    0.60990    0.42170    1.000
    C40      C        0.95770    0.66000    0.37560    1.000
    H37      H        0.95390    0.67290    0.42670    1.000
    C41      C        0.93010    0.67760    0.30220    1.000
    C42      C        0.93910    0.65960    0.22910    1.000
    H38      H        0.92230    0.67250    0.17950    1.000
    C43      C        0.97210    0.62320    0.22560    1.000
    H39      H        0.97570    0.61040    0.17430    1.000
    C44      C        0.00030    0.60520    0.29860    1.000
    C45      C        0.03730    0.56670    0.29450    1.000
    C46      C        0.82060    0.78770    0.30090    1.000
    C47      C        0.86570    0.79320    0.35690    1.000
    C48      C        0.90330    0.75500    0.35160    1.000
    C49      C        0.89280    0.71610    0.30360    1.000
    C50      C        0.84320    0.71110    0.24950    1.000
    C51      C        0.79910    0.74920    0.23440    1.000
    C52      C        0.75070    0.69950    0.14110    1.000
    H40      H        0.73760    0.67340    0.17010    1.000
    H41      H        0.77950    0.68880    0.11860    1.000
    C53      C        0.70760    0.72490    0.06940    1.000
    H42      H        0.72120    0.75300    0.04630    1.000
    H43      H        0.69640    0.70250    0.02440    1.000
    C54      C        0.66350    0.73940    0.11280    1.000
    H44      H        0.64540    0.70950    0.11350    1.000
    H45      H        0.67960    0.74440    0.17010    1.000
    C55      C        0.63020    0.76950    0.10350    1.000
    H46      H        0.60350    0.75410    0.06550    1.000
    H47      H        0.64260    0.79440    0.07100    1.000
    C56      C        0.60040    0.80020    0.16840    1.000
    H48      H        0.61030    0.83360    0.17290    1.000
    H49      H        0.56450    0.79790    0.15270    1.000
    C57      C        0.62150    0.77010    0.25310    1.000
    H50      H        0.60790    0.78310    0.29880    1.000
    H51      H        0.65710    0.77240    0.26510    1.000
    H52      H        0.61190    0.73710    0.24520    1.000
    C58      C        0.94780    0.78940    0.48650    1.000
    H53      H        0.92220    0.81270    0.46630    1.000
    H54      H        0.93190    0.76740    0.51970    1.000
    C59      C        0.97140    0.81080    0.53740    1.000
    H55      H        0.96940    0.79330    0.58820    1.000
    C60      C        0.96860    0.86470    0.56180    1.000
    H56      H        0.96700    0.86500    0.62080    1.000
    H57      H        0.00070    0.87840    0.55680    1.000
    C61      C        0.93000    0.90070    0.52170    1.000
    H58      H        0.90410    0.90610    0.55460    1.000
    H59      H        0.91520    0.89190    0.46520    1.000
    C62      C        0.96760    0.94520    0.52510    1.000
    H60      H        0.00270    0.93740    0.53870    1.000
    H61      H        0.95900    0.97330    0.55460    1.000
    O7       O        0.66520    0.94980    0.37800    1.000
    O8       O        0.64880    0.94990    0.23860    1.000
    O9       O        0.06010    0.55120    0.36260    1.000
    O10      O        0.04370    0.55090    0.22560    1.000
    O11      O        0.94710    0.76110    0.41230    1.000
    O12      O        0.76030    0.74050    0.19010    1.000
    H62      H        0.00520    0.80640    0.52780    1.000
    C63      C        0.82730    0.43570    0.69290    1.000
    C64      C        0.78930    0.39910    0.69440    1.000
    C65      C        0.76170    0.38010    0.62070    1.000
    H63      H        0.76730    0.39220    0.56990    1.000
    C66      C        0.72780    0.34570    0.62020    1.000
    H64      H        0.71120    0.33380    0.56950    1.000
    C67      C        0.71630    0.32650    0.69640    1.000
    C68      C        0.74490    0.34640    0.77380    1.000
    H65      H        0.74080    0.33440    0.82550    1.000
    C69      C        0.77680    0.38170    0.76870    1.000
    H66      H        0.79200    0.39600    0.81820    1.000
    C70      C        0.50910    0.12310    0.62790    1.000
    H67      H        0.49240    0.10990    0.57830    1.000
    C71      C        0.54230    0.16000    0.62440    1.000
    H68      H        0.54610    0.17290    0.57330    1.000
    C72      C        0.56990    0.17760    0.69780    1.000
    C73      C        0.56090    0.15960    0.77090    1.000
    H69      H        0.57770    0.17250    0.82050    1.000
    C74      C        0.52790    0.12320    0.77440    1.000
    H70      H        0.52430    0.11040    0.82570    1.000
    C75      C        0.49970    0.10520    0.70140    1.000
    C76      C        0.46270    0.06670    0.70550    1.000
    C77      C        0.67940    0.28770    0.69910    1.000
    C78      C        0.63430    0.29320    0.64310    1.000
    C79      C        0.59670    0.25500    0.64840    1.000
    C80      C        0.60720    0.21610    0.69640    1.000
    C81      C        0.65680    0.21110    0.75050    1.000
    C82      C        0.70090    0.24920    0.76560    1.000
    C83      C        0.74930    0.19950    0.85890    1.000
    H71      H        0.76240    0.17340    0.82990    1.000
    H72      H        0.72050    0.18880    0.88140    1.000
    C84      C        0.79240    0.22490    0.93060    1.000
    H73      H        0.77880    0.25300    0.95370    1.000
    H74      H        0.80360    0.20250    0.97560    1.000
    C85      C        0.83650    0.23940    0.88720    1.000
    H75      H        0.85460    0.20950    0.88650    1.000
    H76      H        0.82040    0.24440    0.82990    1.000
    C86      C        0.86980    0.26950    0.89650    1.000
    H77      H        0.89650    0.25410    0.93450    1.000
    H78      H        0.85740    0.29440    0.92900    1.000
    C87      C        0.89960    0.30020    0.83160    1.000
    H79      H        0.88970    0.33360    0.82710    1.000
    H80      H        0.93550    0.29790    0.84730    1.000
    C88      C        0.87850    0.27010    0.74690    1.000
    H81      H        0.89210    0.28310    0.70120    1.000
    H82      H        0.84290    0.27240    0.73490    1.000
    H83      H        0.88810    0.23710    0.75480    1.000
    C89      C        0.55220    0.28940    0.51350    1.000
    H84      H        0.57780    0.31270    0.53370    1.000
    H85      H        0.56810    0.26740    0.48030    1.000
    C90      C        0.52860    0.31080    0.46260    1.000
    H86      H        0.53060    0.29330    0.41180    1.000
    C91      C        0.53140    0.36470    0.43820    1.000
    H87      H        0.53300    0.36500    0.37920    1.000
    H88      H        0.49930    0.37840    0.44320    1.000
    C92      C        0.57000    0.40070    0.47830    1.000
    H89      H        0.59590    0.40610    0.44540    1.000
    H90      H        0.58480    0.39190    0.53480    1.000
    C93      C        0.53240    0.44520    0.47490    1.000
    H91      H        0.49730    0.43740    0.46130    1.000
    H92      H        0.54100    0.47330    0.44540    1.000
    O13      O        0.83480    0.44980    0.62200    1.000
    O14      O        0.85120    0.44990    0.76140    1.000
    O15      O        0.43990    0.05120    0.63740    1.000
    O16      O        0.45630    0.05090    0.77440    1.000
    O17      O        0.55290    0.26110    0.58770    1.000
    O18      O        0.73970    0.24050    0.80990    1.000
    H93      H        0.49480    0.30640    0.47220    1.000
    C94      C        0.32730    0.93570    0.69290    1.000
    C95      C        0.28930    0.89910    0.69440    1.000
    C96      C        0.26170    0.88010    0.62070    1.000
    H94      H        0.26730    0.89220    0.56990    1.000
    C97      C        0.22780    0.84570    0.62020    1.000
    H95      H        0.21120    0.83380    0.56950    1.000
    C98      C        0.21630    0.82650    0.69640    1.000
    C99      C        0.24490    0.84640    0.77380    1.000
    H96      H        0.24080    0.83440    0.82550    1.000
    C100     C        0.27680    0.88170    0.76870    1.000
    H97      H        0.29200    0.89600    0.81820    1.000
    C101     C        0.00910    0.62310    0.62790    1.000
    H98      H        0.99240    0.60990    0.57830    1.000
    C102     C        0.04230    0.66000    0.62440    1.000
    H99      H        0.04610    0.67290    0.57330    1.000
    C103     C        0.06990    0.67760    0.69780    1.000
    C104     C        0.06090    0.65960    0.77090    1.000
    H100     H        0.07770    0.67250    0.82050    1.000
    C105     C        0.02790    0.62320    0.77440    1.000
    H101     H        0.02430    0.61040    0.82570    1.000
    C106     C        0.99970    0.60520    0.70140    1.000
    C107     C        0.96270    0.56670    0.70550    1.000
    C108     C        0.17940    0.78770    0.69910    1.000
    C109     C        0.13430    0.79320    0.64310    1.000
    C110     C        0.09670    0.75500    0.64840    1.000
    C111     C        0.10720    0.71610    0.69640    1.000
    C112     C        0.15680    0.71110    0.75050    1.000
    C113     C        0.20090    0.74920    0.76560    1.000
    C114     C        0.24930    0.69950    0.85890    1.000
    H102     H        0.26240    0.67340    0.82990    1.000
    H103     H        0.22050    0.68880    0.88140    1.000
    C115     C        0.29240    0.72490    0.93060    1.000
    H104     H        0.27880    0.75300    0.95370    1.000
    H105     H        0.30360    0.70250    0.97560    1.000
    C116     C        0.33650    0.73940    0.88720    1.000
    H106     H        0.35460    0.70950    0.88650    1.000
    H107     H        0.32040    0.74440    0.82990    1.000
    C117     C        0.36980    0.76950    0.89650    1.000
    H108     H        0.39650    0.75410    0.93450    1.000
    H109     H        0.35740    0.79440    0.92900    1.000
    C118     C        0.39960    0.80020    0.83160    1.000
    H110     H        0.38970    0.83360    0.82710    1.000
    H111     H        0.43550    0.79790    0.84730    1.000
    C119     C        0.37850    0.77010    0.74690    1.000
    H112     H        0.39210    0.78310    0.70120    1.000
    H113     H        0.34290    0.77240    0.73490    1.000
    H114     H        0.38810    0.73710    0.75480    1.000
    C120     C        0.05220    0.78940    0.51350    1.000
    H115     H        0.07780    0.81270    0.53370    1.000
    H116     H        0.06810    0.76740    0.48030    1.000
    C121     C        0.02860    0.81080    0.46260    1.000
    H117     H        0.03060    0.79330    0.41180    1.000
    C122     C        0.03140    0.86470    0.43820    1.000
    H118     H        0.03300    0.86500    0.37920    1.000
    H119     H        0.99930    0.87840    0.44320    1.000
    C123     C        0.07000    0.90070    0.47830    1.000
    H120     H        0.09590    0.90610    0.44540    1.000
    H121     H        0.08480    0.89190    0.53480    1.000
    C124     C        0.03240    0.94520    0.47490    1.000
    H122     H        0.99730    0.93740    0.46130    1.000
    H123     H        0.04100    0.97330    0.44540    1.000
    O19      O        0.33480    0.94980    0.62200    1.000
    O20      O        0.35120    0.94990    0.76140    1.000
    O21      O        0.93990    0.55120    0.63740    1.000
    O22      O        0.95630    0.55090    0.77440    1.000
    O23      O        0.05290    0.76110    0.58770    1.000
    O24      O        0.23970    0.74050    0.80990    1.000
    H124     H        0.99480    0.80640    0.47220    1.000
    C125     C        0.82730    0.56430    0.69290    1.000
    C126     C        0.78930    0.60090    0.69440    1.000
    C127     C        0.76170    0.61990    0.62070    1.000
    H125     H        0.76730    0.60780    0.56990    1.000
    C128     C        0.72780    0.65430    0.62020    1.000
    H126     H        0.71120    0.66620    0.56950    1.000
    C129     C        0.71630    0.67350    0.69640    1.000
    C130     C        0.74490    0.65360    0.77380    1.000
    H127     H        0.74080    0.66560    0.82550    1.000
    C131     C        0.77680    0.61830    0.76870    1.000
    H128     H        0.79200    0.60400    0.81820    1.000
    C132     C        0.50910    0.87690    0.62790    1.000
    H129     H        0.49240    0.89010    0.57830    1.000
    C133     C        0.54230    0.84000    0.62440    1.000
    H130     H        0.54610    0.82710    0.57330    1.000
    C134     C        0.56990    0.82240    0.69780    1.000
    C135     C        0.56090    0.84040    0.77090    1.000
    H131     H        0.57770    0.82750    0.82050    1.000
    C136     C        0.52790    0.87680    0.77440    1.000
    H132     H        0.52430    0.88960    0.82570    1.000
    C137     C        0.49970    0.89480    0.70140    1.000
    C138     C        0.46270    0.93330    0.70550    1.000
    C139     C        0.67940    0.71230    0.69910    1.000
    C140     C        0.63430    0.70680    0.64310    1.000
    C141     C        0.59670    0.74500    0.64840    1.000
    C142     C        0.60720    0.78390    0.69640    1.000
    C143     C        0.65680    0.78890    0.75050    1.000
    C144     C        0.70090    0.75080    0.76560    1.000
    C145     C        0.74930    0.80050    0.85890    1.000
    H133     H        0.76240    0.82660    0.82990    1.000
    H134     H        0.72050    0.81120    0.88140    1.000
    C146     C        0.79240    0.77510    0.93060    1.000
    H135     H        0.77880    0.74700    0.95370    1.000
    H136     H        0.80360    0.79750    0.97560    1.000
    C147     C        0.83650    0.76060    0.88720    1.000
    H137     H        0.85460    0.79050    0.88650    1.000
    H138     H        0.82040    0.75560    0.82990    1.000
    C148     C        0.86980    0.73050    0.89650    1.000
    H139     H        0.89650    0.74590    0.93450    1.000
    H140     H        0.85740    0.70560    0.92900    1.000
    C149     C        0.89960    0.69980    0.83160    1.000
    H141     H        0.88970    0.66640    0.82710    1.000
    H142     H        0.93550    0.70210    0.84730    1.000
    C150     C        0.87850    0.72990    0.74690    1.000
    H143     H        0.89210    0.71690    0.70120    1.000
    H144     H        0.84290    0.72760    0.73490    1.000
    H145     H        0.88810    0.76290    0.75480    1.000
    C151     C        0.55220    0.71060    0.51350    1.000
    H146     H        0.57780    0.68730    0.53370    1.000
    H147     H        0.56810    0.73260    0.48030    1.000
    C152     C        0.52860    0.68920    0.46260    1.000
    H148     H        0.53060    0.70670    0.41180    1.000
    C153     C        0.53140    0.63530    0.43820    1.000
    H149     H        0.53300    0.63500    0.37920    1.000
    H150     H        0.49930    0.62160    0.44320    1.000
    C154     C        0.57000    0.59930    0.47830    1.000
    H151     H        0.59590    0.59390    0.44540    1.000
    H152     H        0.58480    0.60810    0.53480    1.000
    C155     C        0.53240    0.55480    0.47490    1.000
    H153     H        0.49730    0.56260    0.46130    1.000
    H154     H        0.54100    0.52670    0.44540    1.000
    O25      O        0.83480    0.55020    0.62200    1.000
    O26      O        0.85120    0.55010    0.76140    1.000
    O27      O        0.43990    0.94880    0.63740    1.000
    O28      O        0.45630    0.94910    0.77440    1.000
    O29      O        0.55290    0.73890    0.58770    1.000
    O30      O        0.73970    0.75950    0.80990    1.000
    H155     H        0.49480    0.69360    0.47220    1.000
    C156     C        0.32730    0.06430    0.69290    1.000
    C157     C        0.28930    0.10090    0.69440    1.000
    C158     C        0.26170    0.11990    0.62070    1.000
    H156     H        0.26730    0.10780    0.56990    1.000
    C159     C        0.22780    0.15430    0.62020    1.000
    H157     H        0.21120    0.16620    0.56950    1.000
    C160     C        0.21630    0.17350    0.69640    1.000
    C161     C        0.24490    0.15360    0.77380    1.000
    H158     H        0.24080    0.16560    0.82550    1.000
    C162     C        0.27680    0.11830    0.76870    1.000
    H159     H        0.29200    0.10400    0.81820    1.000
    C163     C        0.00910    0.37690    0.62790    1.000
    H160     H        0.99240    0.39010    0.57830    1.000
    C164     C        0.04230    0.34000    0.62440    1.000
    H161     H        0.04610    0.32710    0.57330    1.000
    C165     C        0.06990    0.32240    0.69780    1.000
    C166     C        0.06090    0.34040    0.77090    1.000
    H162     H        0.07770    0.32750    0.82050    1.000
    C167     C        0.02790    0.37680    0.77440    1.000
    H163     H        0.02430    0.38960    0.82570    1.000
    C168     C        0.99970    0.39480    0.70140    1.000
    C169     C        0.96270    0.43330    0.70550    1.000
    C170     C        0.17940    0.21230    0.69910    1.000
    C171     C        0.13430    0.20680    0.64310    1.000
    C172     C        0.09670    0.24500    0.64840    1.000
    C173     C        0.10720    0.28390    0.69640    1.000
    C174     C        0.15680    0.28890    0.75050    1.000
    C175     C        0.20090    0.25080    0.76560    1.000
    C176     C        0.24930    0.30050    0.85890    1.000
    H164     H        0.26240    0.32660    0.82990    1.000
    H165     H        0.22050    0.31120    0.88140    1.000
    C177     C        0.29240    0.27510    0.93060    1.000
    H166     H        0.27880    0.24700    0.95370    1.000
    H167     H        0.30360    0.29750    0.97560    1.000
    C178     C        0.33650    0.26060    0.88720    1.000
    H168     H        0.35460    0.29050    0.88650    1.000
    H169     H        0.32040    0.25560    0.82990    1.000
    C179     C        0.36980    0.23050    0.89650    1.000
    H170     H        0.39650    0.24590    0.93450    1.000
    H171     H        0.35740    0.20560    0.92900    1.000
    C180     C        0.39960    0.19980    0.83160    1.000
    H172     H        0.38970    0.16640    0.82710    1.000
    H173     H        0.43550    0.20210    0.84730    1.000
    C181     C        0.37850    0.22990    0.74690    1.000
    H174     H        0.39210    0.21690    0.70120    1.000
    H175     H        0.34290    0.22760    0.73490    1.000
    H176     H        0.38810    0.26290    0.75480    1.000
    C182     C        0.05220    0.21060    0.51350    1.000
    H177     H        0.07780    0.18730    0.53370    1.000
    H178     H        0.06810    0.23260    0.48030    1.000
    C183     C        0.02860    0.18920    0.46260    1.000
    H179     H        0.03060    0.20670    0.41180    1.000
    C184     C        0.03140    0.13530    0.43820    1.000
    H180     H        0.03300    0.13500    0.37920    1.000
    H181     H        0.99930    0.12160    0.44320    1.000
    C185     C        0.07000    0.09930    0.47830    1.000
    H182     H        0.09590    0.09390    0.44540    1.000
    H183     H        0.08480    0.10810    0.53480    1.000
    C186     C        0.03240    0.05480    0.47490    1.000
    H184     H        0.99730    0.06260    0.46130    1.000
    H185     H        0.04100    0.02670    0.44540    1.000
    O31      O        0.33480    0.05020    0.62200    1.000
    O32      O        0.35120    0.05010    0.76140    1.000
    O33      O        0.93990    0.44880    0.63740    1.000
    O34      O        0.95630    0.44910    0.77440    1.000
    O35      O        0.05290    0.23890    0.58770    1.000
    O36      O        0.23970    0.25950    0.80990    1.000
    H186     H        0.99480    0.19360    0.47220    1.000
    C187     C        0.17270    0.56430    0.30710    1.000
    C188     C        0.21070    0.60090    0.30560    1.000
    C189     C        0.23830    0.61990    0.37930    1.000
    H187     H        0.23270    0.60780    0.43010    1.000
    C190     C        0.27220    0.65430    0.37980    1.000
    H188     H        0.28880    0.66620    0.43050    1.000
    C191     C        0.28370    0.67350    0.30360    1.000
    C192     C        0.25510    0.65360    0.22620    1.000
    H189     H        0.25920    0.66560    0.17450    1.000
    C193     C        0.22320    0.61830    0.23130    1.000
    H190     H        0.20800    0.60400    0.18180    1.000
    C194     C        0.49090    0.87690    0.37210    1.000
    H191     H        0.50760    0.89010    0.42170    1.000
    C195     C        0.45770    0.84000    0.37560    1.000
    H192     H        0.45390    0.82710    0.42670    1.000
    C196     C        0.43010    0.82240    0.30220    1.000
    C197     C        0.43910    0.84040    0.22910    1.000
    H193     H        0.42230    0.82750    0.17950    1.000
    C198     C        0.47210    0.87680    0.22560    1.000
    H194     H        0.47570    0.88960    0.17430    1.000
    C199     C        0.50030    0.89480    0.29860    1.000
    C200     C        0.53730    0.93330    0.29450    1.000
    C201     C        0.32060    0.71230    0.30090    1.000
    C202     C        0.36570    0.70680    0.35690    1.000
    C203     C        0.40330    0.74500    0.35160    1.000
    C204     C        0.39280    0.78390    0.30360    1.000
    C205     C        0.34320    0.78890    0.24950    1.000
    C206     C        0.29910    0.75080    0.23440    1.000
    C207     C        0.25070    0.80050    0.14110    1.000
    H195     H        0.23760    0.82660    0.17010    1.000
    H196     H        0.27950    0.81120    0.11860    1.000
    C208     C        0.20760    0.77510    0.06940    1.000
    H197     H        0.22120    0.74700    0.04630    1.000
    H198     H        0.19640    0.79750    0.02440    1.000
    C209     C        0.16350    0.76060    0.11280    1.000
    H199     H        0.14540    0.79050    0.11350    1.000
    H200     H        0.17960    0.75560    0.17010    1.000
    C210     C        0.13020    0.73050    0.10350    1.000
    H201     H        0.10350    0.74590    0.06550    1.000
    H202     H        0.14260    0.70560    0.07100    1.000
    C211     C        0.10040    0.69980    0.16840    1.000
    H203     H        0.11030    0.66640    0.17290    1.000
    H204     H        0.06450    0.70210    0.15270    1.000
    C212     C        0.12150    0.72990    0.25310    1.000
    H205     H        0.10790    0.71690    0.29880    1.000
    H206     H        0.15710    0.72760    0.26510    1.000
    H207     H        0.11190    0.76290    0.24520    1.000
    C213     C        0.44780    0.71060    0.48650    1.000
    H208     H        0.42220    0.68730    0.46630    1.000
    H209     H        0.43190    0.73260    0.51970    1.000
    C214     C        0.47140    0.68920    0.53740    1.000
    H210     H        0.46940    0.70670    0.58820    1.000
    C215     C        0.46860    0.63530    0.56180    1.000
    H211     H        0.46700    0.63500    0.62080    1.000
    H212     H        0.50070    0.62160    0.55680    1.000
    C216     C        0.43000    0.59930    0.52170    1.000
    H213     H        0.40410    0.59390    0.55460    1.000
    H214     H        0.41520    0.60810    0.46520    1.000
    C217     C        0.46760    0.55480    0.52510    1.000
    H215     H        0.50270    0.56260    0.53870    1.000
    H216     H        0.45900    0.52670    0.55460    1.000
    O37      O        0.16520    0.55020    0.37800    1.000
    O38      O        0.14880    0.55010    0.23860    1.000
    O39      O        0.56010    0.94880    0.36260    1.000
    O40      O        0.54370    0.94910    0.22560    1.000
    O41      O        0.44710    0.73890    0.41230    1.000
    O42      O        0.26030    0.75950    0.19010    1.000
    H217     H        0.50520    0.69360    0.52780    1.000
    C218     C        0.67270    0.06430    0.30710    1.000
    C219     C        0.71070    0.10090    0.30560    1.000
    C220     C        0.73830    0.11990    0.37930    1.000
    H218     H        0.73270    0.10780    0.43010    1.000
    C221     C        0.77220    0.15430    0.37980    1.000
    H219     H        0.78880    0.16620    0.43050    1.000
    C222     C        0.78370    0.17350    0.30360    1.000
    C223     C        0.75510    0.15360    0.22620    1.000
    H220     H        0.75920    0.16560    0.17450    1.000
    C224     C        0.72320    0.11830    0.23130    1.000
    H221     H        0.70800    0.10400    0.18180    1.000
    C225     C        0.99090    0.37690    0.37210    1.000
    H222     H        0.00760    0.39010    0.42170    1.000
    C226     C        0.95770    0.34000    0.37560    1.000
    H223     H        0.95390    0.32710    0.42670    1.000
    C227     C        0.93010    0.32240    0.30220    1.000
    C228     C        0.93910    0.34040    0.22910    1.000
    H224     H        0.92230    0.32750    0.17950    1.000
    C229     C        0.97210    0.37680    0.22560    1.000
    H225     H        0.97570    0.38960    0.17430    1.000
    C230     C        0.00030    0.39480    0.29860    1.000
    C231     C        0.03730    0.43330    0.29450    1.000
    C232     C        0.82060    0.21230    0.30090    1.000
    C233     C        0.86570    0.20680    0.35690    1.000
    C234     C        0.90330    0.24500    0.35160    1.000
    C235     C        0.89280    0.28390    0.30360    1.000
    C236     C        0.84320    0.28890    0.24950    1.000
    C237     C        0.79910    0.25080    0.23440    1.000
    C238     C        0.75070    0.30050    0.14110    1.000
    H226     H        0.73760    0.32660    0.17010    1.000
    H227     H        0.77950    0.31120    0.11860    1.000
    C239     C        0.70760    0.27510    0.06940    1.000
    H228     H        0.72120    0.24700    0.04630    1.000
    H229     H        0.69640    0.29750    0.02440    1.000
    C240     C        0.66350    0.26060    0.11280    1.000
    H230     H        0.64540    0.29050    0.11350    1.000
    H231     H        0.67960    0.25560    0.17010    1.000
    C241     C        0.63020    0.23050    0.10350    1.000
    H232     H        0.60350    0.24590    0.06550    1.000
    H233     H        0.64260    0.20560    0.07100    1.000
    C242     C        0.60040    0.19980    0.16840    1.000
    H234     H        0.61030    0.16640    0.17290    1.000
    H235     H        0.56450    0.20210    0.15270    1.000
    C243     C        0.62150    0.22990    0.25310    1.000
    H236     H        0.60790    0.21690    0.29880    1.000
    H237     H        0.65710    0.22760    0.26510    1.000
    H238     H        0.61190    0.26290    0.24520    1.000
    C244     C        0.94780    0.21060    0.48650    1.000
    H239     H        0.92220    0.18730    0.46630    1.000
    H240     H        0.93190    0.23260    0.51970    1.000
    C245     C        0.97140    0.18920    0.53740    1.000
    H241     H        0.96940    0.20670    0.58820    1.000
    C246     C        0.96860    0.13530    0.56180    1.000
    H242     H        0.96700    0.13500    0.62080    1.000
    H243     H        0.00070    0.12160    0.55680    1.000
    C247     C        0.93000    0.09930    0.52170    1.000
    H244     H        0.90410    0.09390    0.55460    1.000
    H245     H        0.91520    0.10810    0.46520    1.000
    C248     C        0.96760    0.05480    0.52510    1.000
    H246     H        0.00270    0.06260    0.53870    1.000
    H247     H        0.95900    0.02670    0.55460    1.000
    O43      O        0.66520    0.05020    0.37800    1.000
    O44      O        0.64880    0.05010    0.23860    1.000
    O45      O        0.06010    0.44880    0.36260    1.000
    O46      O        0.04370    0.44910    0.22560    1.000
    O47      O        0.94710    0.23890    0.41230    1.000
    O48      O        0.76030    0.25950    0.19010    1.000
    H248     H        0.00520    0.19360    0.52780    1.000
    C249     C        0.13130    0.50000    0.05610    1.000
    H249     H        0.16170    0.50000    0.09230    1.000
    C250     C        0.12970    0.50000    0.94850    1.000
    H250     H        0.15830    0.50000    0.92480    1.000
    C251     C        0.08980    0.50000    0.90880    1.000
    C252     C        0.04920    0.50000    0.94670    1.000
    H251     H        0.01860    0.50000    0.91110    1.000
    C253     C        0.04720    0.50000    0.03030    1.000
    H252     H        0.01670    0.50000    0.04830    1.000
    C254     C        0.16010    0.50000    0.57580    1.000
    H253     H        0.19000    0.50000    0.55580    1.000
    C255     C        0.16010    0.50000    0.65550    1.000
    H254     H        0.19050    0.50000    0.69190    1.000
    C256     C        0.11140    0.50000    0.69240    1.000
    C257     C        0.07400    0.50000    0.64510    1.000
    H255     H        0.04390    0.50000    0.66430    1.000
    C258     C        0.07460    0.50000    0.54540    1.000
    H256     H        0.04430    0.50000    0.50880    1.000
    C259     C        0.08490    0.50000    0.81720    1.000
    H257     H        0.05270    0.50000    0.78640    1.000
    C260     C        0.11440    0.50000    0.78340    1.000
    H258     H        0.14630    0.50000    0.81510    1.000
    N1       N        0.11210    0.50000    0.51690    1.000
    N2       N        0.08990    0.50000    0.08600    1.000
    Zn1      Zn       0.11386    0.50000    0.39395    1.000
    Zn2      Zn       0.09458    0.50000    0.20999    1.000
    C261     C        0.63130    0.00000    0.05610    1.000
    H259     H        0.66170    0.00000    0.09230    1.000
    C262     C        0.62970    0.00000    0.94850    1.000
    H260     H        0.65830    0.00000    0.92480    1.000
    C263     C        0.58980    0.00000    0.90880    1.000
    C264     C        0.54920    0.00000    0.94670    1.000
    H261     H        0.51860    0.00000    0.91110    1.000
    C265     C        0.54720    0.00000    0.03030    1.000
    H262     H        0.51670    0.00000    0.04830    1.000
    C266     C        0.66010    0.00000    0.57580    1.000
    H263     H        0.69000    0.00000    0.55580    1.000
    C267     C        0.66010    0.00000    0.65550    1.000
    H264     H        0.69050    0.00000    0.69190    1.000
    C268     C        0.61140    0.00000    0.69240    1.000
    C269     C        0.57400    0.00000    0.64510    1.000
    H265     H        0.54390    0.00000    0.66430    1.000
    C270     C        0.57460    0.00000    0.54540    1.000
    H266     H        0.54430    0.00000    0.50880    1.000
    C271     C        0.58490    0.00000    0.81720    1.000
    H267     H        0.55270    0.00000    0.78640    1.000
    C272     C        0.61440    0.00000    0.78340    1.000
    H268     H        0.64630    0.00000    0.81510    1.000
    N3       N        0.61210    0.00000    0.51690    1.000
    N4       N        0.58990    0.00000    0.08600    1.000
    Zn3      Zn       0.61386    0.00000    0.39395    1.000
    Zn4      Zn       0.59458    0.00000    0.20999    1.000
    C273     C        0.86870    0.50000    0.94390    1.000
    H269     H        0.83830    0.50000    0.90770    1.000
    C274     C        0.87030    0.50000    0.05150    1.000
    H270     H        0.84170    0.50000    0.07520    1.000
    C275     C        0.91020    0.50000    0.09120    1.000
    C276     C        0.95080    0.50000    0.05330    1.000
    H271     H        0.98140    0.50000    0.08890    1.000
    C277     C        0.95280    0.50000    0.96970    1.000
    H272     H        0.98330    0.50000    0.95170    1.000
    C278     C        0.83990    0.50000    0.42420    1.000
    H273     H        0.81000    0.50000    0.44420    1.000
    C279     C        0.83990    0.50000    0.34450    1.000
    H274     H        0.80950    0.50000    0.30810    1.000
    C280     C        0.88860    0.50000    0.30760    1.000
    C281     C        0.92600    0.50000    0.35490    1.000
    H275     H        0.95610    0.50000    0.33570    1.000
    C282     C        0.92540    0.50000    0.45460    1.000
    H276     H        0.95570    0.50000    0.49120    1.000
    C283     C        0.91510    0.50000    0.18280    1.000
    H277     H        0.94730    0.50000    0.21360    1.000
    C284     C        0.88560    0.50000    0.21660    1.000
    H278     H        0.85370    0.50000    0.18490    1.000
    N5       N        0.88790    0.50000    0.48310    1.000
    N6       N        0.91010    0.50000    0.91400    1.000
    Zn5      Zn       0.88614    0.50000    0.60605    1.000
    Zn6      Zn       0.90542    0.50000    0.79001    1.000
    C285     C        0.36870    0.00000    0.94390    1.000
    H279     H        0.33830    0.00000    0.90770    1.000
    C286     C        0.37030    0.00000    0.05150    1.000
    H280     H        0.34170    0.00000    0.07520    1.000
    C287     C        0.41020    0.00000    0.09120    1.000
    C288     C        0.45080    0.00000    0.05330    1.000
    H281     H        0.48140    0.00000    0.08890    1.000
    C289     C        0.45280    0.00000    0.96970    1.000
    H282     H        0.48330    0.00000    0.95170    1.000
    C290     C        0.33990    0.00000    0.42420    1.000
    H283     H        0.31000    0.00000    0.44420    1.000
    C291     C        0.33990    0.00000    0.34450    1.000
    H284     H        0.30950    0.00000    0.30810    1.000
    C292     C        0.38860    0.00000    0.30760    1.000
    C293     C        0.42600    0.00000    0.35490    1.000
    H285     H        0.45610    0.00000    0.33570    1.000
    C294     C        0.42540    0.00000    0.45460    1.000
    H286     H        0.45570    0.00000    0.49120    1.000
    C295     C        0.41510    0.00000    0.18280    1.000
    H287     H        0.44730    0.00000    0.21360    1.000
    C296     C        0.38560    0.00000    0.21660    1.000
    H288     H        0.35370    0.00000    0.18490    1.000
    N7       N        0.38790    0.00000    0.48310    1.000
    N8       N        0.41010    0.00000    0.91400    1.000
    Zn7      Zn       0.38614    0.00000    0.60605    1.000
    Zn8      Zn       0.40542    0.00000    0.79001    1.000
