# CIF file generated by openbabel 3.1.0, see https://openbabel.org
data_I
_chemical_name_common 'image0'
_cell_length_a 9.5107
_cell_length_b 14.6128
_cell_length_c 13.5317
_cell_angle_alpha 90
_cell_angle_beta 90
_cell_angle_gamma 90
_space_group_name_H-M_alt 'P 1'
_space_group_name_Hall 'P 1'
loop_
    _symmetry_equiv_pos_as_xyz
    x,y,z
loop_
    _atom_site_label
    _atom_site_type_symbol
    _atom_site_fract_x
    _atom_site_fract_y
    _atom_site_fract_z
    _atom_site_occupancy
    O1       O        0.03630    0.49366    0.23100    1.000
    O2       O        0.20470    0.39144    0.24975    1.000
    O3       O        0.90770    0.11786    0.55546    1.000
    O4       O        0.08280    0.11130    0.44985    1.000
    C1       C        0.08850    0.42393    0.27421    1.000
    C2       C        0.00720    0.37995    0.35580    1.000
    C3       C        0.90770    0.43010    0.40800    1.000
    H1       H        0.89050    0.49080    0.39130    1.000
    C4       C        0.83420    0.39000    0.48480    1.000
    H2       H        0.76880    0.42420    0.52020    1.000
    C5       C        0.85720    0.29980    0.50930    1.000
    C6       C        0.95670    0.24899    0.45907    1.000
    C7       C        0.03140    0.28945    0.38220    1.000
    H3       H        0.09840    0.25550    0.34810    1.000
    C8       C        0.98460    0.15170    0.49004    1.000
    H4       H        0.80100    0.27600    0.55700    1.000
    O5       O        0.46370    0.50634    0.23100    1.000
    O6       O        0.29530    0.60856    0.24975    1.000
    O7       O        0.59230    0.88214    0.55546    1.000
    O8       O        0.41720    0.88870    0.44985    1.000
    C9       C        0.41150    0.57607    0.27421    1.000
    C10      C        0.49280    0.62005    0.35580    1.000
    C11      C        0.59230    0.56990    0.40800    1.000
    H5       H        0.60950    0.50920    0.39130    1.000
    C12      C        0.66580    0.61000    0.48480    1.000
    H6       H        0.73120    0.57580    0.52020    1.000
    C13      C        0.64280    0.70020    0.50930    1.000
    C14      C        0.54330    0.75101    0.45907    1.000
    C15      C        0.46860    0.71055    0.38220    1.000
    H7       H        0.40160    0.74450    0.34810    1.000
    C16      C        0.51540    0.84830    0.49004    1.000
    H8       H        0.69900    0.72400    0.55700    1.000
    O9       O        0.46370    0.99366    0.26900    1.000
    O10      O        0.29530    0.89144    0.25025    1.000
    O11      O        0.59230    0.61786    0.94454    1.000
    O12      O        0.41720    0.61130    0.05015    1.000
    C17      C        0.41150    0.92393    0.22579    1.000
    C18      C        0.49280    0.87995    0.14420    1.000
    C19      C        0.59230    0.93010    0.09200    1.000
    H9       H        0.60950    0.99080    0.10870    1.000
    C20      C        0.66580    0.89000    0.01520    1.000
    H10      H        0.73120    0.92420    0.97980    1.000
    C21      C        0.64280    0.79980    0.99070    1.000
    C22      C        0.54330    0.74899    0.04093    1.000
    C23      C        0.46860    0.78945    0.11780    1.000
    H11      H        0.40160    0.75550    0.15190    1.000
    C24      C        0.51540    0.65170    0.00996    1.000
    H12      H        0.69900    0.77600    0.94300    1.000
    O13      O        0.03630    0.00634    0.26900    1.000
    O14      O        0.20470    0.10856    0.25025    1.000
    O15      O        0.90770    0.38214    0.94454    1.000
    O16      O        0.08280    0.38870    0.05015    1.000
    C25      C        0.08850    0.07607    0.22579    1.000
    C26      C        0.00720    0.12005    0.14420    1.000
    C27      C        0.90770    0.06990    0.09200    1.000
    H13      H        0.89050    0.00920    0.10870    1.000
    C28      C        0.83420    0.11000    0.01520    1.000
    H14      H        0.76880    0.07580    0.97980    1.000
    C29      C        0.85720    0.20020    0.99070    1.000
    C30      C        0.95670    0.25101    0.04093    1.000
    C31      C        0.03140    0.21055    0.11780    1.000
    H15      H        0.09840    0.24450    0.15190    1.000
    C32      C        0.98460    0.34830    0.00996    1.000
    H16      H        0.80100    0.22400    0.94300    1.000
    O17      O        0.96370    0.50634    0.76900    1.000
    O18      O        0.79530    0.60856    0.75025    1.000
    O19      O        0.09230    0.88214    0.44454    1.000
    O20      O        0.91720    0.88870    0.55015    1.000
    C33      C        0.91150    0.57607    0.72579    1.000
    C34      C        0.99280    0.62005    0.64420    1.000
    C35      C        0.09230    0.56990    0.59200    1.000
    H17      H        0.10950    0.50920    0.60870    1.000
    C36      C        0.16580    0.61000    0.51520    1.000
    H18      H        0.23120    0.57580    0.47980    1.000
    C37      C        0.14280    0.70020    0.49070    1.000
    C38      C        0.04330    0.75101    0.54093    1.000
    C39      C        0.96860    0.71055    0.61780    1.000
    H19      H        0.90160    0.74450    0.65190    1.000
    C40      C        0.01540    0.84830    0.50996    1.000
    H20      H        0.19900    0.72400    0.44300    1.000
    O21      O        0.53630    0.49366    0.76900    1.000
    O22      O        0.70470    0.39144    0.75025    1.000
    O23      O        0.40770    0.11786    0.44454    1.000
    O24      O        0.58280    0.11130    0.55015    1.000
    C41      C        0.58850    0.42393    0.72579    1.000
    C42      C        0.50720    0.37995    0.64420    1.000
    C43      C        0.40770    0.43010    0.59200    1.000
    H21      H        0.39050    0.49080    0.60870    1.000
    C44      C        0.33420    0.39000    0.51520    1.000
    H22      H        0.26880    0.42420    0.47980    1.000
    C45      C        0.35720    0.29980    0.49070    1.000
    C46      C        0.45670    0.24899    0.54093    1.000
    C47      C        0.53140    0.28945    0.61780    1.000
    H23      H        0.59840    0.25550    0.65190    1.000
    C48      C        0.48460    0.15170    0.50996    1.000
    H24      H        0.30100    0.27600    0.44300    1.000
    O25      O        0.53630    0.00634    0.73100    1.000
    O26      O        0.70470    0.10856    0.74975    1.000
    O27      O        0.40770    0.38214    0.05546    1.000
    O28      O        0.58280    0.38870    0.94985    1.000
    C49      C        0.58850    0.07607    0.77421    1.000
    C50      C        0.50720    0.12005    0.85580    1.000
    C51      C        0.40770    0.06990    0.90800    1.000
    H25      H        0.39050    0.00920    0.89130    1.000
    C52      C        0.33420    0.11000    0.98480    1.000
    H26      H        0.26880    0.07580    0.02020    1.000
    C53      C        0.35720    0.20020    0.00930    1.000
    C54      C        0.45670    0.25101    0.95907    1.000
    C55      C        0.53140    0.21055    0.88220    1.000
    H27      H        0.59840    0.24450    0.84810    1.000
    C56      C        0.48460    0.34830    0.99004    1.000
    H28      H        0.30100    0.22400    0.05700    1.000
    O29      O        0.96370    0.99366    0.73100    1.000
    O30      O        0.79530    0.89144    0.74975    1.000
    O31      O        0.09230    0.61786    0.05546    1.000
    O32      O        0.91720    0.61130    0.94985    1.000
    C57      C        0.91150    0.92393    0.77421    1.000
    C58      C        0.99280    0.87995    0.85580    1.000
    C59      C        0.09230    0.93010    0.90800    1.000
    H29      H        0.10950    0.99080    0.89130    1.000
    C60      C        0.16580    0.89000    0.98480    1.000
    H30      H        0.23120    0.92420    0.02020    1.000
    C61      C        0.14280    0.79980    0.00930    1.000
    C62      C        0.04330    0.74899    0.95907    1.000
    C63      C        0.96860    0.78945    0.88220    1.000
    H31      H        0.90160    0.75550    0.84810    1.000
    C64      C        0.01540    0.65170    0.99004    1.000
    H32      H        0.19900    0.77600    0.05700    1.000
    Nd1      Nd       0.25000    0.50000    0.10438    1.000
    Nd2      Nd       0.25000    0.00000    0.39563    1.000
    Nd3      Nd       0.75000    0.50000    0.89563    1.000
    Nd4      Nd       0.75000    0.00000    0.60438    1.000
