# CIF file generated by openbabel 3.1.0, see https://openbabel.org
data_I
_chemical_name_common 'image0'
_cell_length_a 9.7373
_cell_length_b 15.1542
_cell_length_c 21.1695
_cell_angle_alpha 90
_cell_angle_beta 98.756
_cell_angle_gamma 90
_space_group_name_H-M_alt 'P 1'
_space_group_name_Hall 'P 1'
loop_
    _symmetry_equiv_pos_as_xyz
    x,y,z
loop_
    _atom_site_label
    _atom_site_type_symbol
    _atom_site_fract_x
    _atom_site_fract_y
    _atom_site_fract_z
    _atom_site_occupancy
    C1       C        0.42110    0.33620    0.16324    1.000
    C2       C        0.45450    0.41750    0.12812    1.000
    C3       C        0.46600    0.49620    0.16242    1.000
    H1       H        0.45180    0.49570    0.20580    1.000
    C4       C        0.49740    0.57500    0.13521    1.000
    C5       C        0.52100    0.65350    0.17922    1.000
    C6       C        0.51050    0.57850    0.06964    1.000
    C7       C        0.53190    0.65990    0.03789    1.000
    H2       H        0.54040    0.71330    0.06160    1.000
    C8       C        0.45970    0.33820    0.02525    1.000
    H3       H        0.44600    0.28320    0.04500    1.000
    C9       C        0.47090    0.41690    0.06317    1.000
    C10      C        0.49540    0.49890    0.03372    1.000
    C11      C        0.18350    0.39570    0.33692    1.000
    C12      C        0.08820    0.45260    0.37032    1.000
    C13      C        0.99950    0.51070    0.33383    1.000
    H4       H        0.99960    0.51380    0.28900    1.000
    C14      C        0.91000    0.56490    0.36200    1.000
    C15      C        0.80880    0.62260    0.31973    1.000
    C16      C        0.09090    0.44710    0.43676    1.000
    C17      C        0.18000    0.38700    0.47661    1.000
    H5       H        0.23980    0.34920    0.45760    1.000
    C18      C        0.81920    0.61700    0.45951    1.000
    H6       H        0.75820    0.65710    0.43470    1.000
    C19      C        0.90900    0.56170    0.42833    1.000
    C20      C        0.99980    0.50240    0.46606    1.000
    O1       O        0.47480    0.26456    0.15315    1.000
    O2       O        0.33780    0.35008    0.20298    1.000
    O3       O        0.44480    0.66348    0.22020    1.000
    O4       O        0.62490    0.70148    0.17184    1.000
    O5       O        0.12490    0.33651    0.29945    1.000
    O6       O        0.30950    0.40953    0.34639    1.000
    O7       O        0.68490    0.60314    0.31301    1.000
    O8       O        0.85990    0.68768    0.29286    1.000
    Li1      Li       0.49620    0.15010    0.18910    1.000
    Zn1      Zn       0.26936    0.27102    0.26169    1.000
    C21      C        0.57890    0.83620    0.33676    1.000
    C22      C        0.54550    0.91750    0.37188    1.000
    C23      C        0.53400    0.99620    0.33758    1.000
    H7       H        0.54820    0.99570    0.29420    1.000
    C24      C        0.50260    0.07500    0.36479    1.000
    C25      C        0.47900    0.15350    0.32078    1.000
    C26      C        0.48950    0.07850    0.43036    1.000
    C27      C        0.46810    0.15990    0.46211    1.000
    H8       H        0.45960    0.21330    0.43840    1.000
    C28      C        0.54030    0.83820    0.47475    1.000
    H9       H        0.55400    0.78320    0.45500    1.000
    C29      C        0.52910    0.91690    0.43683    1.000
    C30      C        0.50460    0.99890    0.46628    1.000
    C31      C        0.81650    0.89570    0.16308    1.000
    C32      C        0.91180    0.95260    0.12968    1.000
    C33      C        0.00050    0.01070    0.16617    1.000
    H10      H        0.00040    0.01380    0.21100    1.000
    C34      C        0.09000    0.06490    0.13800    1.000
    C35      C        0.19120    0.12260    0.18027    1.000
    C36      C        0.90910    0.94710    0.06324    1.000
    C37      C        0.82000    0.88700    0.02339    1.000
    H11      H        0.76020    0.84920    0.04240    1.000
    C38      C        0.18080    0.11700    0.04049    1.000
    H12      H        0.24180    0.15710    0.06530    1.000
    C39      C        0.09100    0.06170    0.07167    1.000
    C40      C        0.00020    0.00240    0.03394    1.000
    O9       O        0.52520    0.76456    0.34685    1.000
    O10      O        0.66220    0.85008    0.29702    1.000
    O11      O        0.55520    0.16348    0.27980    1.000
    O12      O        0.37510    0.20148    0.32816    1.000
    O13      O        0.87510    0.83651    0.20055    1.000
    O14      O        0.69050    0.90953    0.15361    1.000
    O15      O        0.31510    0.10314    0.18699    1.000
    O16      O        0.14010    0.18768    0.20714    1.000
    Li2      Li       0.50380    0.65010    0.31090    1.000
    Zn2      Zn       0.73064    0.77102    0.23831    1.000
    C41      C        0.57890    0.66380    0.83676    1.000
    C42      C        0.54550    0.58250    0.87188    1.000
    C43      C        0.53400    0.50380    0.83758    1.000
    H13      H        0.54820    0.50430    0.79420    1.000
    C44      C        0.50260    0.42500    0.86479    1.000
    C45      C        0.47900    0.34650    0.82078    1.000
    C46      C        0.48950    0.42150    0.93036    1.000
    C47      C        0.46810    0.34010    0.96211    1.000
    H14      H        0.45960    0.28670    0.93840    1.000
    C48      C        0.54030    0.66180    0.97475    1.000
    H15      H        0.55400    0.71680    0.95500    1.000
    C49      C        0.52910    0.58310    0.93683    1.000
    C50      C        0.50460    0.50110    0.96628    1.000
    C51      C        0.81650    0.60430    0.66308    1.000
    C52      C        0.91180    0.54740    0.62968    1.000
    C53      C        0.00050    0.48930    0.66617    1.000
    H16      H        0.00040    0.48620    0.71100    1.000
    C54      C        0.09000    0.43510    0.63800    1.000
    C55      C        0.19120    0.37740    0.68027    1.000
    C56      C        0.90910    0.55290    0.56324    1.000
    C57      C        0.82000    0.61300    0.52339    1.000
    H17      H        0.76020    0.65080    0.54240    1.000
    C58      C        0.18080    0.38300    0.54049    1.000
    H18      H        0.24180    0.34290    0.56530    1.000
    C59      C        0.09100    0.43830    0.57167    1.000
    C60      C        0.00020    0.49760    0.53394    1.000
    O17      O        0.52520    0.73544    0.84685    1.000
    O18      O        0.66220    0.64992    0.79702    1.000
    O19      O        0.55520    0.33652    0.77980    1.000
    O20      O        0.37510    0.29852    0.82816    1.000
    O21      O        0.87510    0.66349    0.70055    1.000
    O22      O        0.69050    0.59047    0.65361    1.000
    O23      O        0.31510    0.39686    0.68699    1.000
    O24      O        0.14010    0.31232    0.70714    1.000
    Li3      Li       0.50380    0.84990    0.81090    1.000
    Zn3      Zn       0.73064    0.72898    0.73831    1.000
    C61      C        0.42110    0.16380    0.66324    1.000
    C62      C        0.45450    0.08250    0.62812    1.000
    C63      C        0.46600    0.00380    0.66242    1.000
    H19      H        0.45180    0.00430    0.70580    1.000
    C64      C        0.49740    0.92500    0.63521    1.000
    C65      C        0.52100    0.84650    0.67922    1.000
    C66      C        0.51050    0.92150    0.56964    1.000
    C67      C        0.53190    0.84010    0.53789    1.000
    H20      H        0.54040    0.78670    0.56160    1.000
    C68      C        0.45970    0.16180    0.52525    1.000
    H21      H        0.44600    0.21680    0.54500    1.000
    C69      C        0.47090    0.08310    0.56317    1.000
    C70      C        0.49540    0.00110    0.53372    1.000
    C71      C        0.18350    0.10430    0.83692    1.000
    C72      C        0.08820    0.04740    0.87032    1.000
    C73      C        0.99950    0.98930    0.83383    1.000
    H22      H        0.99960    0.98620    0.78900    1.000
    C74      C        0.91000    0.93510    0.86200    1.000
    C75      C        0.80880    0.87740    0.81973    1.000
    C76      C        0.09090    0.05290    0.93676    1.000
    C77      C        0.18000    0.11300    0.97661    1.000
    H23      H        0.23980    0.15080    0.95760    1.000
    C78      C        0.81920    0.88300    0.95951    1.000
    H24      H        0.75820    0.84290    0.93470    1.000
    C79      C        0.90900    0.93830    0.92833    1.000
    C80      C        0.99980    0.99760    0.96606    1.000
    O25      O        0.47480    0.23544    0.65315    1.000
    O26      O        0.33780    0.14992    0.70298    1.000
    O27      O        0.44480    0.83652    0.72020    1.000
    O28      O        0.62490    0.79852    0.67184    1.000
    O29      O        0.12490    0.16349    0.79945    1.000
    O30      O        0.30950    0.09047    0.84639    1.000
    O31      O        0.68490    0.89686    0.81301    1.000
    O32      O        0.85990    0.81232    0.79286    1.000
    Li4      Li       0.49620    0.34990    0.68910    1.000
    Zn4      Zn       0.26936    0.22898    0.76169    1.000
