# CIF file generated by openbabel 3.1.0, see https://openbabel.org
data_I
_chemical_name_common 'image0'
_cell_length_a 8.1331
_cell_length_b 14.6556
_cell_length_c 16.8257
_cell_angle_alpha 90
_cell_angle_beta 90
_cell_angle_gamma 90
_space_group_name_H-M_alt 'P 1'
_space_group_name_Hall 'P 1'
loop_
    _symmetry_equiv_pos_as_xyz
    x,y,z
loop_
    _atom_site_label
    _atom_site_type_symbol
    _atom_site_fract_x
    _atom_site_fract_y
    _atom_site_fract_z
    _atom_site_occupancy
    Zn1      Zn       0.43968    0.52747    0.04526    1.000
    S1       S        0.83109    0.86405    0.78970    1.000
    O1       O        0.53130    0.61765    0.96936    1.000
    O2       O        0.57270    0.48320    0.91653    1.000
    O3       O        0.97500    0.57226    0.60937    1.000
    O4       O        0.77300    0.47387    0.63138    1.000
    O5       O        0.86380    0.87866    0.87415    1.000
    O6       O        0.68610    0.91059    0.76317    1.000
    O7       O        0.97480    0.87937    0.74090    1.000
    N1       N        0.21770    0.49004    0.00462    1.000
    N2       N        0.02780    0.44430    0.92200    1.000
    H1       H        0.98000    0.42220    0.88060    1.000
    C1       C        0.66680    0.61280    0.84495    1.000
    C2       C        0.71090    0.56240    0.77818    1.000
    H2       H        0.68230    0.50110    0.77500    1.000
    C3       C        0.79630    0.60232    0.71680    1.000
    C4       C        0.83690    0.69482    0.72062    1.000
    H3       H        0.89650    0.72200    0.67980    1.000
    C5       C        0.78760    0.74572    0.78575    1.000
    C6       C        0.70440    0.70510    0.84775    1.000
    H4       H        0.67340    0.73970    0.89160    1.000
    C7       C        0.58490    0.56767    0.91425    1.000
    C8       C        0.84820    0.54404    0.64693    1.000
    C9       C        0.18680    0.45184    0.93357    1.000
    H5       H        0.26690    0.43330    0.89760    1.000
    C10      C        0.06870    0.50560    0.03756    1.000
    H6       H        0.05260    0.53150    0.08740    1.000
    C11      C        0.95060    0.47970    0.99060    1.000
    H7       H        0.83820    0.48370    0.00020    1.000
    Zn2      Zn       0.06032    0.47253    0.54526    1.000
    S2       S        0.66891    0.13595    0.28970    1.000
    O8       O        0.96870    0.38235    0.46936    1.000
    O9       O        0.92730    0.51680    0.41653    1.000
    O10      O        0.52500    0.42774    0.10937    1.000
    O11      O        0.72700    0.52613    0.13138    1.000
    O12      O        0.63620    0.12134    0.37415    1.000
    O13      O        0.81390    0.08941    0.26317    1.000
    O14      O        0.52520    0.12063    0.24090    1.000
    N3       N        0.28230    0.50996    0.50462    1.000
    N4       N        0.47220    0.55570    0.42200    1.000
    H8       H        0.52000    0.57780    0.38060    1.000
    C12      C        0.83320    0.38720    0.34495    1.000
    C13      C        0.78910    0.43760    0.27818    1.000
    H9       H        0.81770    0.49890    0.27500    1.000
    C14      C        0.70370    0.39768    0.21680    1.000
    C15      C        0.66310    0.30518    0.22062    1.000
    H10      H        0.60350    0.27800    0.17980    1.000
    C16      C        0.71240    0.25428    0.28575    1.000
    C17      C        0.79560    0.29490    0.34775    1.000
    H11      H        0.82660    0.26030    0.39160    1.000
    C18      C        0.91510    0.43233    0.41425    1.000
    C19      C        0.65180    0.45596    0.14693    1.000
    C20      C        0.31320    0.54816    0.43357    1.000
    H12      H        0.23310    0.56670    0.39760    1.000
    C21      C        0.43130    0.49440    0.53756    1.000
    H13      H        0.44740    0.46850    0.58740    1.000
    C22      C        0.54940    0.52030    0.49060    1.000
    H14      H        0.66180    0.51630    0.50020    1.000
    Zn3      Zn       0.56032    0.02747    0.45474    1.000
    S3       S        0.16891    0.36405    0.71030    1.000
    O15      O        0.46870    0.11765    0.53064    1.000
    O16      O        0.42730    0.98320    0.58347    1.000
    O17      O        0.02500    0.07226    0.89063    1.000
    O18      O        0.22700    0.97387    0.86862    1.000
    O19      O        0.13620    0.37866    0.62585    1.000
    O20      O        0.31390    0.41059    0.73683    1.000
    O21      O        0.02520    0.37937    0.75910    1.000
    N5       N        0.78230    0.99004    0.49538    1.000
    N6       N        0.97220    0.94430    0.57800    1.000
    H15      H        0.02000    0.92220    0.61940    1.000
    C23      C        0.33320    0.11280    0.65505    1.000
    C24      C        0.28910    0.06240    0.72182    1.000
    H16      H        0.31770    0.00110    0.72500    1.000
    C25      C        0.20370    0.10232    0.78320    1.000
    C26      C        0.16310    0.19482    0.77938    1.000
    H17      H        0.10350    0.22200    0.82020    1.000
    C27      C        0.21240    0.24572    0.71425    1.000
    C28      C        0.29560    0.20510    0.65225    1.000
    H18      H        0.32660    0.23970    0.60840    1.000
    C29      C        0.41510    0.06767    0.58575    1.000
    C30      C        0.15180    0.04404    0.85307    1.000
    C31      C        0.81320    0.95184    0.56643    1.000
    H19      H        0.73310    0.93330    0.60240    1.000
    C32      C        0.93130    0.00560    0.46244    1.000
    H20      H        0.94740    0.03150    0.41260    1.000
    C33      C        0.04940    0.97970    0.50940    1.000
    H21      H        0.16180    0.98370    0.49980    1.000
    Zn4      Zn       0.93968    0.97253    0.95474    1.000
    S4       S        0.33109    0.63595    0.21030    1.000
    O22      O        0.03130    0.88235    0.03064    1.000
    O23      O        0.07270    0.01680    0.08347    1.000
    O24      O        0.47500    0.92774    0.39063    1.000
    O25      O        0.27300    0.02613    0.36862    1.000
    O26      O        0.36380    0.62134    0.12585    1.000
    O27      O        0.18610    0.58941    0.23683    1.000
    O28      O        0.47480    0.62063    0.25910    1.000
    N7       N        0.71770    0.00996    0.99538    1.000
    N8       N        0.52780    0.05570    0.07800    1.000
    H22      H        0.48000    0.07780    0.11940    1.000
    C34      C        0.16680    0.88720    0.15505    1.000
    C35      C        0.21090    0.93760    0.22182    1.000
    H23      H        0.18230    0.99890    0.22500    1.000
    C36      C        0.29630    0.89768    0.28320    1.000
    C37      C        0.33690    0.80518    0.27938    1.000
    H24      H        0.39650    0.77800    0.32020    1.000
    C38      C        0.28760    0.75428    0.21425    1.000
    C39      C        0.20440    0.79490    0.15225    1.000
    H25      H        0.17340    0.76030    0.10840    1.000
    C40      C        0.08490    0.93233    0.08575    1.000
    C41      C        0.34820    0.95596    0.35307    1.000
    C42      C        0.68680    0.04816    0.06643    1.000
    H26      H        0.76690    0.06670    0.10240    1.000
    C43      C        0.56870    0.99440    0.96244    1.000
    H27      H        0.55260    0.96850    0.91260    1.000
    C44      C        0.45060    0.02030    0.00940    1.000
    H28      H        0.33820    0.01630    0.99980    1.000
