# CIF file generated by openbabel 3.1.0, see https://openbabel.org
data_I
_chemical_name_common 'image0'
_cell_length_a 10.364
_cell_length_b 26.746
_cell_length_c 27.804
_cell_angle_alpha 90
_cell_angle_beta 93.91
_cell_angle_gamma 90
_space_group_name_H-M_alt 'P 1'
_space_group_name_Hall 'P 1'
loop_
    _symmetry_equiv_pos_as_xyz
    x,y,z
loop_
    _atom_site_label
    _atom_site_type_symbol
    _atom_site_fract_x
    _atom_site_fract_y
    _atom_site_fract_z
    _atom_site_occupancy
    C1       C        0.96360    0.37100    0.07150    1.000
    C2       C        0.97030    0.41690    0.03790    1.000
    C3       C        0.95560    0.40830    0.98760    1.000
    H1       H        0.93730    0.37580    0.97600    1.000
    C4       C        0.99160    0.46200    0.05600    1.000
    H2       H        0.99670    0.46690    0.08950    1.000
    C5       C        0.00710    0.50400    0.02380    1.000
    C6       C        0.03220    0.55270    0.04480    1.000
    H3       H        0.03990    0.55770    0.07830    1.000
    C7       C        0.24510    0.33580    0.20640    1.000
    C8       C        0.36730    0.36330    0.21520    1.000
    C9       C        0.48560    0.34030    0.20660    1.000
    H4       H        0.48690    0.30670    0.19680    1.000
    C10      C        0.59850    0.36650    0.21250    1.000
    C11      C        0.59940    0.41530    0.22800    1.000
    H5       H        0.67820    0.43280    0.23190    1.000
    C12      C        0.48460    0.43920    0.23800    1.000
    C13      C        0.36920    0.41250    0.23070    1.000
    H6       H        0.29080    0.42830    0.23660    1.000
    C14      C        0.72150    0.34120    0.19790    1.000
    C15      C        0.48680    0.49180    0.25520    1.000
    C16      C        0.59080    0.51290    0.28040    1.000
    H7       H        0.66460    0.49310    0.28740    1.000
    C17      C        0.59230    0.56130    0.29600    1.000
    H8       H        0.66590    0.57390    0.31360    1.000
    C18      C        0.48450    0.59270    0.28580    1.000
    C19      C        0.37840    0.57300    0.25920    1.000
    H9       H        0.30630    0.59340    0.25110    1.000
    C20      C        0.37790    0.52310    0.24430    1.000
    H10      H        0.30450    0.51000    0.22690    1.000
    C21      C        0.48740    0.64560    0.30080    1.000
    C22      C        0.69180    0.22230    0.08190    1.000
    C23      C        0.56480    0.21930    0.05370    1.000
    C24      C        0.45230    0.21860    0.07850    1.000
    H11      H        0.45680    0.21630    0.11230    1.000
    C25      C        0.33220    0.22150    0.05210    1.000
    C26      C        0.32490    0.22480    0.00230    1.000
    H12      H        0.24360    0.22690    0.98530    1.000
    C27      C        0.43650    0.22480    0.97700    1.000
    C28      C        0.55890    0.22440    0.00380    1.000
    H13      H        0.63540    0.22750    0.98780    1.000
    C29      C        0.21260    0.22500    0.07880    1.000
    C30      C        0.43090    0.22940    0.92430    1.000
    C31      C        0.33260    0.25500    0.89890    1.000
    H14      H        0.26580    0.26920    0.91560    1.000
    C32      C        0.33060    0.26010    0.84970    1.000
    H15      H        0.25990    0.27600    0.83310    1.000
    C33      C        0.42930    0.24240    0.82450    1.000
    C34      C        0.52570    0.21740    0.85010    1.000
    H16      H        0.59360    0.20430    0.83320    1.000
    C35      C        0.52960    0.21000    0.89960    1.000
    H17      H        0.59790    0.19230    0.91570    1.000
    C36      C        0.42910    0.24970    0.77060    1.000
    O1       O        0.97050    0.26971    0.15053    1.000
    O2       O        0.94760    0.32970    0.05093    1.000
    O3       O        0.96900    0.38010    0.11510    1.000
    O4       O        0.25620    0.28814    0.20118    1.000
    O5       O        0.14190    0.36016    0.20333    1.000
    O6       O        0.71140    0.29980    0.17835    1.000
    O7       O        0.82770    0.36491    0.20625    1.000
    O8       O        0.58740    0.66140    0.32335    1.000
    O9       O        0.38520    0.67106    0.29198    1.000
    O10      O        0.69550    0.21220    0.12588    1.000
    O11      O        0.79060    0.23381    0.05919    1.000
    O12      O        0.22170    0.21736    0.12337    1.000
    O13      O        0.10680    0.23408    0.05397    1.000
    O14      O        0.33000    0.26740    0.74823    1.000
    O15      O        0.52300    0.23270    0.75110    1.000
    Zn1      Zn       0.12219    0.23806    0.18285    1.000
    Zn2      Zn       0.82782    0.23343    0.17772    1.000
    Zn3      Zn       0.95543    0.26408    0.08185    1.000
    Zn4      Zn       0.97311    0.33657    0.17495    1.000
    C37      C        0.53640    0.87100    0.42850    1.000
    C38      C        0.52970    0.91690    0.46210    1.000
    C39      C        0.54440    0.90830    0.51240    1.000
    H18      H        0.56270    0.87580    0.52400    1.000
    C40      C        0.50840    0.96200    0.44400    1.000
    H19      H        0.50330    0.96690    0.41050    1.000
    C41      C        0.49290    0.00400    0.47620    1.000
    C42      C        0.46780    0.05270    0.45520    1.000
    H20      H        0.46010    0.05770    0.42170    1.000
    C43      C        0.25490    0.83580    0.29360    1.000
    C44      C        0.13270    0.86330    0.28480    1.000
    C45      C        0.01440    0.84030    0.29340    1.000
    H21      H        0.01310    0.80670    0.30320    1.000
    C46      C        0.90150    0.86650    0.28750    1.000
    C47      C        0.90060    0.91530    0.27200    1.000
    H22      H        0.82180    0.93280    0.26810    1.000
    C48      C        0.01540    0.93920    0.26200    1.000
    C49      C        0.13080    0.91250    0.26930    1.000
    H23      H        0.20920    0.92830    0.26340    1.000
    C50      C        0.77850    0.84120    0.30210    1.000
    C51      C        0.01320    0.99180    0.24480    1.000
    C52      C        0.90920    0.01290    0.21960    1.000
    H24      H        0.83540    0.99310    0.21260    1.000
    C53      C        0.90770    0.06130    0.20400    1.000
    H25      H        0.83410    0.07390    0.18640    1.000
    C54      C        0.01550    0.09270    0.21420    1.000
    C55      C        0.12160    0.07300    0.24080    1.000
    H26      H        0.19370    0.09340    0.24890    1.000
    C56      C        0.12210    0.02310    0.25570    1.000
    H27      H        0.19550    0.01000    0.27310    1.000
    C57      C        0.01260    0.14560    0.19920    1.000
    C58      C        0.80820    0.72230    0.41810    1.000
    C59      C        0.93520    0.71930    0.44630    1.000
    C60      C        0.04770    0.71860    0.42150    1.000
    H28      H        0.04320    0.71630    0.38770    1.000
    C61      C        0.16780    0.72150    0.44790    1.000
    C62      C        0.17510    0.72480    0.49770    1.000
    H29      H        0.25640    0.72690    0.51470    1.000
    C63      C        0.06350    0.72480    0.52300    1.000
    C64      C        0.94110    0.72440    0.49620    1.000
    H30      H        0.86460    0.72750    0.51220    1.000
    C65      C        0.28740    0.72500    0.42120    1.000
    C66      C        0.06910    0.72940    0.57570    1.000
    C67      C        0.16740    0.75500    0.60110    1.000
    H31      H        0.23420    0.76920    0.58440    1.000
    C68      C        0.16940    0.76010    0.65030    1.000
    H32      H        0.24010    0.77600    0.66690    1.000
    C69      C        0.07070    0.74240    0.67550    1.000
    C70      C        0.97430    0.71740    0.64990    1.000
    H33      H        0.90640    0.70430    0.66680    1.000
    C71      C        0.97040    0.71000    0.60040    1.000
    H34      H        0.90210    0.69230    0.58430    1.000
    C72      C        0.07090    0.74970    0.72940    1.000
    O16      O        0.52950    0.76971    0.34947    1.000
    O17      O        0.55240    0.82970    0.44907    1.000
    O18      O        0.53100    0.88010    0.38490    1.000
    O19      O        0.24380    0.78814    0.29882    1.000
    O20      O        0.35810    0.86016    0.29667    1.000
    O21      O        0.78860    0.79980    0.32165    1.000
    O22      O        0.67230    0.86491    0.29375    1.000
    O23      O        0.91260    0.16140    0.17665    1.000
    O24      O        0.11480    0.17106    0.20802    1.000
    O25      O        0.80450    0.71220    0.37412    1.000
    O26      O        0.70940    0.73381    0.44081    1.000
    O27      O        0.27830    0.71736    0.37663    1.000
    O28      O        0.39320    0.73408    0.44603    1.000
    O29      O        0.17000    0.76740    0.75177    1.000
    O30      O        0.97700    0.73270    0.74890    1.000
    Zn5      Zn       0.37781    0.73806    0.31715    1.000
    Zn6      Zn       0.67218    0.73343    0.32228    1.000
    Zn7      Zn       0.54457    0.76408    0.41815    1.000
    Zn8      Zn       0.52689    0.83657    0.32505    1.000
    C73      C        0.03640    0.62900    0.92850    1.000
    C74      C        0.02970    0.58310    0.96210    1.000
    C75      C        0.04440    0.59170    0.01240    1.000
    H35      H        0.06270    0.62420    0.02400    1.000
    C76      C        0.00840    0.53800    0.94400    1.000
    H36      H        0.00330    0.53310    0.91050    1.000
    C77      C        0.99290    0.49600    0.97620    1.000
    C78      C        0.96780    0.44730    0.95520    1.000
    H37      H        0.96010    0.44230    0.92170    1.000
    C79      C        0.75490    0.66420    0.79360    1.000
    C80      C        0.63270    0.63670    0.78480    1.000
    C81      C        0.51440    0.65970    0.79340    1.000
    H38      H        0.51310    0.69330    0.80320    1.000
    C82      C        0.40150    0.63350    0.78750    1.000
    C83      C        0.40060    0.58470    0.77200    1.000
    H39      H        0.32180    0.56720    0.76810    1.000
    C84      C        0.51540    0.56080    0.76200    1.000
    C85      C        0.63080    0.58750    0.76930    1.000
    H40      H        0.70920    0.57170    0.76340    1.000
    C86      C        0.27850    0.65880    0.80210    1.000
    C87      C        0.51320    0.50820    0.74480    1.000
    C88      C        0.40920    0.48710    0.71960    1.000
    H41      H        0.33540    0.50690    0.71260    1.000
    C89      C        0.40770    0.43870    0.70400    1.000
    H42      H        0.33410    0.42610    0.68640    1.000
    C90      C        0.51550    0.40730    0.71420    1.000
    C91      C        0.62160    0.42700    0.74080    1.000
    H43      H        0.69370    0.40660    0.74890    1.000
    C92      C        0.62210    0.47690    0.75570    1.000
    H44      H        0.69550    0.49000    0.77310    1.000
    C93      C        0.51260    0.35440    0.69920    1.000
    C94      C        0.30820    0.77770    0.91810    1.000
    C95      C        0.43520    0.78070    0.94630    1.000
    C96      C        0.54770    0.78140    0.92150    1.000
    H45      H        0.54320    0.78370    0.88770    1.000
    C97      C        0.66780    0.77850    0.94790    1.000
    C98      C        0.67510    0.77520    0.99770    1.000
    H46      H        0.75640    0.77310    0.01470    1.000
    C99      C        0.56350    0.77520    0.02300    1.000
    C100     C        0.44110    0.77560    0.99620    1.000
    H47      H        0.36460    0.77250    0.01220    1.000
    C101     C        0.78740    0.77500    0.92120    1.000
    C102     C        0.56910    0.77060    0.07570    1.000
    C103     C        0.66740    0.74500    0.10110    1.000
    H48      H        0.73420    0.73080    0.08440    1.000
    C104     C        0.66940    0.73990    0.15030    1.000
    H49      H        0.74010    0.72400    0.16690    1.000
    C105     C        0.57070    0.75760    0.17550    1.000
    C106     C        0.47430    0.78260    0.14990    1.000
    H50      H        0.40640    0.79570    0.16680    1.000
    C107     C        0.47040    0.79000    0.10040    1.000
    H51      H        0.40210    0.80770    0.08430    1.000
    C108     C        0.57090    0.75030    0.22940    1.000
    O31      O        0.02950    0.73029    0.84947    1.000
    O32      O        0.05240    0.67030    0.94907    1.000
    O33      O        0.03100    0.61990    0.88490    1.000
    O34      O        0.74380    0.71186    0.79882    1.000
    O35      O        0.85810    0.63984    0.79667    1.000
    O36      O        0.28860    0.70020    0.82165    1.000
    O37      O        0.17230    0.63509    0.79375    1.000
    O38      O        0.41260    0.33860    0.67665    1.000
    O39      O        0.61480    0.32894    0.70802    1.000
    O40      O        0.30450    0.78780    0.87412    1.000
    O41      O        0.20940    0.76619    0.94081    1.000
    O42      O        0.77830    0.78264    0.87663    1.000
    O43      O        0.89320    0.76592    0.94603    1.000
    O44      O        0.67000    0.73260    0.25177    1.000
    O45      O        0.47700    0.76730    0.24890    1.000
    Zn9      Zn       0.87781    0.76194    0.81715    1.000
    Zn10     Zn       0.17218    0.76657    0.82228    1.000
    Zn11     Zn       0.04457    0.73592    0.91815    1.000
    Zn12     Zn       0.02689    0.66343    0.82505    1.000
    C109     C        0.46360    0.12900    0.57150    1.000
    C110     C        0.47030    0.08310    0.53790    1.000
    C111     C        0.45560    0.09170    0.48760    1.000
    H52      H        0.43730    0.12420    0.47600    1.000
    C112     C        0.49160    0.03800    0.55600    1.000
    H53      H        0.49670    0.03310    0.58950    1.000
    C113     C        0.50710    0.99600    0.52380    1.000
    C114     C        0.53220    0.94730    0.54480    1.000
    H54      H        0.53990    0.94230    0.57830    1.000
    C115     C        0.74510    0.16420    0.70640    1.000
    C116     C        0.86730    0.13670    0.71520    1.000
    C117     C        0.98560    0.15970    0.70660    1.000
    H55      H        0.98690    0.19330    0.69680    1.000
    C118     C        0.09850    0.13350    0.71250    1.000
    C119     C        0.09940    0.08470    0.72800    1.000
    H56      H        0.17820    0.06720    0.73190    1.000
    C120     C        0.98460    0.06080    0.73800    1.000
    C121     C        0.86920    0.08750    0.73070    1.000
    H57      H        0.79080    0.07170    0.73660    1.000
    C122     C        0.22150    0.15880    0.69790    1.000
    C123     C        0.98680    0.00820    0.75520    1.000
    C124     C        0.09080    0.98710    0.78040    1.000
    H58      H        0.16460    0.00690    0.78740    1.000
    C125     C        0.09230    0.93870    0.79600    1.000
    H59      H        0.16590    0.92610    0.81360    1.000
    C126     C        0.98450    0.90730    0.78580    1.000
    C127     C        0.87840    0.92700    0.75920    1.000
    H60      H        0.80630    0.90660    0.75110    1.000
    C128     C        0.87790    0.97690    0.74430    1.000
    H61      H        0.80450    0.99000    0.72690    1.000
    C129     C        0.98740    0.85440    0.80080    1.000
    C130     C        0.19180    0.27770    0.58190    1.000
    C131     C        0.06480    0.28070    0.55370    1.000
    C132     C        0.95230    0.28140    0.57850    1.000
    H62      H        0.95680    0.28370    0.61230    1.000
    C133     C        0.83220    0.27850    0.55210    1.000
    C134     C        0.82490    0.27520    0.50230    1.000
    H63      H        0.74360    0.27310    0.48530    1.000
    C135     C        0.93650    0.27520    0.47700    1.000
    C136     C        0.05890    0.27560    0.50380    1.000
    H64      H        0.13540    0.27250    0.48780    1.000
    C137     C        0.71260    0.27500    0.57880    1.000
    C138     C        0.93090    0.27060    0.42430    1.000
    C139     C        0.83260    0.24500    0.39890    1.000
    H65      H        0.76580    0.23080    0.41560    1.000
    C140     C        0.83060    0.23990    0.34970    1.000
    H66      H        0.75990    0.22400    0.33310    1.000
    C141     C        0.92930    0.25760    0.32450    1.000
    C142     C        0.02570    0.28260    0.35010    1.000
    H67      H        0.09360    0.29570    0.33320    1.000
    C143     C        0.02960    0.29000    0.39960    1.000
    H68      H        0.09790    0.30770    0.41570    1.000
    C144     C        0.92910    0.25030    0.27060    1.000
    O46      O        0.47050    0.23029    0.65053    1.000
    O47      O        0.44760    0.17030    0.55093    1.000
    O48      O        0.46900    0.11990    0.61510    1.000
    O49      O        0.75620    0.21186    0.70118    1.000
    O50      O        0.64190    0.13984    0.70333    1.000
    O51      O        0.21140    0.20020    0.67835    1.000
    O52      O        0.32770    0.13509    0.70625    1.000
    O53      O        0.08740    0.83860    0.82335    1.000
    O54      O        0.88520    0.82894    0.79198    1.000
    O55      O        0.19550    0.28780    0.62588    1.000
    O56      O        0.29060    0.26619    0.55919    1.000
    O57      O        0.72170    0.28264    0.62337    1.000
    O58      O        0.60680    0.26592    0.55397    1.000
    O59      O        0.83000    0.23260    0.24823    1.000
    O60      O        0.02300    0.26730    0.25110    1.000
    Zn13     Zn       0.62219    0.26194    0.68285    1.000
    Zn14     Zn       0.32782    0.26657    0.67772    1.000
    Zn15     Zn       0.45543    0.23592    0.58185    1.000
    Zn16     Zn       0.47311    0.16343    0.67495    1.000
