# CIF file generated by openbabel 3.1.0, see https://openbabel.org
data_I
_chemical_name_common 'image0'
_cell_length_a 9.3037
_cell_length_b 9.5728
_cell_length_c 18.669
_cell_angle_alpha 82.061
_cell_angle_beta 79.153
_cell_angle_gamma 72.695
_space_group_name_H-M_alt 'P 1'
_space_group_name_Hall 'P 1'
loop_
    _symmetry_equiv_pos_as_xyz
    x,y,z
loop_
    _atom_site_label
    _atom_site_type_symbol
    _atom_site_fract_x
    _atom_site_fract_y
    _atom_site_fract_z
    _atom_site_occupancy
    Cd1      Cd       0.20750    0.82020    0.10807    1.000
    Cd2      Cd       0.10107    0.76459    0.43271    1.000
    C1       C        0.14970    0.15430    0.30750    1.000
    C2       C        0.18580    0.17090    0.23050    1.000
    C3       C        0.20310    0.30380    0.19650    1.000
    H1       H        0.23600    0.31100    0.13900    1.000
    C4       C        0.18570    0.42240    0.23620    1.000
    C5       C        0.15400    0.40510    0.31310    1.000
    C6       C        0.13360    0.27290    0.34810    1.000
    C7       C        0.13960    0.53030    0.35850    1.000
    C8       C        0.19890    0.56660    0.19500    1.000
    C9       C        0.12910    0.01130    0.34800    1.000
    C10      C        0.19850    0.04920    0.18400    1.000
    C11      C        0.08830    0.25590    0.43050    1.000
    C12      C        0.94540    0.45890    0.01920    1.000
    H2       H        0.95100    0.38100    0.99300    1.000
    H3       H        0.00100    0.42800    0.06300    1.000
    C13      C        0.77940    0.54510    0.03130    1.000
    C14      C        0.56750    0.76210    0.03340    1.000
    H4       H        0.53260    0.86300    0.02230    1.000
    C15      C        0.72350    0.69610    0.01480    1.000
    H5       H        0.78860    0.75170    0.99190    1.000
    C16      C        0.52120    0.54750    0.07880    1.000
    H6       H        0.45300    0.49440    0.10070    1.000
    C17      C        0.67240    0.47110    0.06200    1.000
    H7       H        0.70270    0.36940    0.07140    1.000
    C18      C        0.92850    0.99330    0.02720    1.000
    N1       N        0.46560    0.69370    0.06550    1.000
    O1       O        0.22700    0.85560    0.50660    1.000
    H8       H        0.22750    0.93990    0.49100    1.000
    O2       O        0.80120    0.06700    0.00950    1.000
    O3       O        0.02160    0.63680    0.35930    1.000
    O4       O        0.24330    0.52100    0.39430    1.000
    O5       O        0.96530    0.34500    0.45560    1.000
    O6       O        0.15290    0.59880    0.13410    1.000
    O7       O        0.25590    0.64540    0.22170    1.000
    O8       O        0.00140    0.01130    0.38620    1.000
    O9       O        0.24030    0.89930    0.34370    1.000
    O10      O        0.09980    0.98190    0.19850    1.000
    O11      O        0.30510    0.02360    0.13120    1.000
    O12      O        0.94870    0.90920    0.08370    1.000
    O13      O        0.16690    0.15700    0.46850    1.000
    Cd3      Cd       0.79250    0.17980    0.89193    1.000
    Cd4      Cd       0.89893    0.23541    0.56729    1.000
    C19      C        0.85030    0.84570    0.69250    1.000
    C20      C        0.81420    0.82910    0.76950    1.000
    C21      C        0.79690    0.69620    0.80350    1.000
    H9       H        0.76400    0.68900    0.86100    1.000
    C22      C        0.81430    0.57760    0.76380    1.000
    C23      C        0.84600    0.59490    0.68690    1.000
    C24      C        0.86640    0.72710    0.65190    1.000
    C25      C        0.86040    0.46970    0.64150    1.000
    C26      C        0.80110    0.43340    0.80500    1.000
    C27      C        0.87090    0.98870    0.65200    1.000
    C28      C        0.80150    0.95080    0.81600    1.000
    C29      C        0.91170    0.74410    0.56950    1.000
    C30      C        0.05460    0.54110    0.98080    1.000
    H10      H        0.04900    0.61900    0.00700    1.000
    H11      H        0.99900    0.57200    0.93700    1.000
    C31      C        0.22060    0.45490    0.96870    1.000
    C32      C        0.43250    0.23790    0.96660    1.000
    H12      H        0.46740    0.13700    0.97770    1.000
    C33      C        0.27650    0.30390    0.98520    1.000
    H13      H        0.21140    0.24830    0.00810    1.000
    C34      C        0.47880    0.45250    0.92120    1.000
    H14      H        0.54700    0.50560    0.89930    1.000
    C35      C        0.32760    0.52890    0.93800    1.000
    H15      H        0.29730    0.63060    0.92860    1.000
    C36      C        0.07150    0.00670    0.97280    1.000
    N2       N        0.53440    0.30630    0.93450    1.000
    O14      O        0.77300    0.14440    0.49340    1.000
    H16      H        0.77250    0.06010    0.50900    1.000
    O15      O        0.19880    0.93300    0.99050    1.000
    O16      O        0.97840    0.36320    0.64070    1.000
    O17      O        0.75670    0.47900    0.60570    1.000
    O18      O        0.03470    0.65500    0.54440    1.000
    O19      O        0.84710    0.40120    0.86590    1.000
    O20      O        0.74410    0.35460    0.77830    1.000
    O21      O        0.99860    0.98870    0.61380    1.000
    O22      O        0.75970    0.10070    0.65630    1.000
    O23      O        0.90020    0.01810    0.80150    1.000
    O24      O        0.69490    0.97640    0.86880    1.000
    O25      O        0.05130    0.09080    0.91630    1.000
    O26      O        0.83310    0.84300    0.53150    1.000
