# CIF file generated by openbabel 3.1.0, see https://openbabel.org
data_I
_chemical_name_common 'ZURQOS_clean'
_cell_length_a 6.96
_cell_length_b 7.718
_cell_length_c 9.693
_cell_angle_alpha 90.61
_cell_angle_beta 91.72
_cell_angle_gamma 90.17
_space_group_name_H-M_alt 'P 1'
_space_group_name_Hall 'P 1'
loop_
    _symmetry_equiv_pos_as_xyz
    x,y,z
loop_
    _atom_site_label
    _atom_site_type_symbol
    _atom_site_fract_x
    _atom_site_fract_y
    _atom_site_fract_z
    _atom_site_occupancy
    Cd1      Cd       0.00000    0.00000    0.00000    1.000
    Ni1      Ni       0.50000    0.50000    0.00000    1.000
    H1       H        0.95900    0.91055    0.28026    1.000
    H2       H        0.66301    0.80924    0.20662    1.000
    H3       H        0.59519    0.02472    0.15713    1.000
    H4       H        0.81172    0.84808    0.48980    1.000
    H5       H        0.34669    0.11192    0.28713    1.000
    H6       H        0.04100    0.08945    0.71974    1.000
    H7       H        0.33699    0.19076    0.79338    1.000
    H8       H        0.40481    0.97528    0.84287    1.000
    H9       H        0.18828    0.15192    0.51020    1.000
    H10      H        0.65331    0.88808    0.71287    1.000
    C1       C        0.68960    0.66030    0.95820    1.000
    C2       C        0.33560    0.68270    0.03260    1.000
    C3       C        0.67710    0.94770    0.23330    1.000
    C4       C        0.58880    0.97650    0.37340    1.000
    C5       C        0.67550    0.91430    0.49350    1.000
    C6       C        0.41420    0.06240    0.38040    1.000
    C7       C        0.31040    0.33970    0.04180    1.000
    C8       C        0.66440    0.31730    0.96740    1.000
    C9       C        0.32290    0.05230    0.76670    1.000
    C10      C        0.41120    0.02350    0.62660    1.000
    C11      C        0.32450    0.08570    0.50650    1.000
    C12      C        0.58580    0.93760    0.61960    1.000
    N1       N        0.80170    0.76340    0.93700    1.000
    N2       N        0.23690    0.79800    0.05130    1.000
    N3       N        0.88160    0.99580    0.22530    1.000
    N4       N        0.19830    0.23660    0.06300    1.000
    N5       N        0.76310    0.20200    0.94870    1.000
    N6       N        0.11840    0.00420    0.77470    1.000
