# CIF file generated by openbabel 3.1.0, see https://openbabel.org
data_I
_chemical_name_common 'image0'
_cell_length_a 14.728
_cell_length_b 14.728
_cell_length_c 14.728
_cell_angle_alpha 90
_cell_angle_beta 90
_cell_angle_gamma 90
_space_group_name_H-M_alt 'P 1'
_space_group_name_Hall 'P 1'
loop_
    _symmetry_equiv_pos_as_xyz
    x,y,z
loop_
    _atom_site_label
    _atom_site_type_symbol
    _atom_site_fract_x
    _atom_site_fract_y
    _atom_site_fract_z
    _atom_site_occupancy
    O1       O        0.20650    0.18080    0.05050    1.000
    O2       O        0.15870    0.05720    0.97520    1.000
    C1       C        0.21100    0.12480    0.99160    1.000
    C2       C        0.28980    0.13120    0.92190    1.000
    C3       C        0.34860    0.20440    0.93490    1.000
    N1       N        0.94390    0.93150    0.95860    1.000
    O3       O        0.92670    0.97220    0.01160    1.000
    H1       H        0.33840    0.24940    0.98090    1.000
    O4       O        0.29350    0.81920    0.55050    1.000
    O5       O        0.34130    0.94280    0.47520    1.000
    C4       C        0.28900    0.87520    0.49160    1.000
    C5       C        0.21020    0.86880    0.42190    1.000
    C6       C        0.15140    0.79560    0.43490    1.000
    N2       N        0.55610    0.06850    0.45860    1.000
    O6       O        0.57330    0.02780    0.51160    1.000
    H2       H        0.16160    0.75060    0.48090    1.000
    O7       O        0.79350    0.68080    0.44950    1.000
    O8       O        0.84130    0.55720    0.52480    1.000
    C7       C        0.78900    0.62480    0.50840    1.000
    C8       C        0.71020    0.63120    0.57810    1.000
    C9       C        0.65140    0.70440    0.56510    1.000
    N3       N        0.05610    0.43150    0.54140    1.000
    O9       O        0.07330    0.47220    0.48840    1.000
    H3       H        0.66160    0.74940    0.51910    1.000
    O10      O        0.70650    0.31920    0.94950    1.000
    O11      O        0.65870    0.44280    0.02480    1.000
    C10      C        0.71100    0.37520    0.00840    1.000
    C11      C        0.78980    0.36880    0.07810    1.000
    C12      C        0.84860    0.29560    0.06510    1.000
    N4       N        0.44390    0.56850    0.04140    1.000
    O12      O        0.42670    0.52780    0.98840    1.000
    H4       H        0.83840    0.25060    0.01910    1.000
    O13      O        0.05050    0.20650    0.18080    1.000
    O14      O        0.97520    0.15870    0.05720    1.000
    C13      C        0.99160    0.21100    0.12480    1.000
    C14      C        0.92190    0.28980    0.13120    1.000
    C15      C        0.93490    0.34860    0.20440    1.000
    N5       N        0.95860    0.94390    0.93150    1.000
    O15      O        0.01160    0.92670    0.97220    1.000
    H5       H        0.98090    0.33840    0.24940    1.000
    O16      O        0.55050    0.29350    0.81920    1.000
    O17      O        0.47520    0.34130    0.94280    1.000
    C16      C        0.49160    0.28900    0.87520    1.000
    C17      C        0.42190    0.21020    0.86880    1.000
    C18      C        0.43490    0.15140    0.79560    1.000
    N6       N        0.45860    0.55610    0.06850    1.000
    O18      O        0.51160    0.57330    0.02780    1.000
    H6       H        0.48090    0.16160    0.75060    1.000
    O19      O        0.44950    0.79350    0.68080    1.000
    O20      O        0.52480    0.84130    0.55720    1.000
    C19      C        0.50840    0.78900    0.62480    1.000
    C20      C        0.57810    0.71020    0.63120    1.000
    C21      C        0.56510    0.65140    0.70440    1.000
    N7       N        0.54140    0.05610    0.43150    1.000
    O21      O        0.48840    0.07330    0.47220    1.000
    H7       H        0.51910    0.66160    0.74940    1.000
    O22      O        0.94950    0.70650    0.31920    1.000
    O23      O        0.02480    0.65870    0.44280    1.000
    C22      C        0.00840    0.71100    0.37520    1.000
    C23      C        0.07810    0.78980    0.36880    1.000
    C24      C        0.06510    0.84860    0.29560    1.000
    N8       N        0.04140    0.44390    0.56850    1.000
    O24      O        0.98840    0.42670    0.52780    1.000
    H8       H        0.01910    0.83840    0.25060    1.000
    O25      O        0.18080    0.05050    0.20650    1.000
    O26      O        0.05720    0.97520    0.15870    1.000
    C25      C        0.12480    0.99160    0.21100    1.000
    C26      C        0.13120    0.92190    0.28980    1.000
    C27      C        0.20440    0.93490    0.34860    1.000
    N9       N        0.93150    0.95860    0.94390    1.000
    O27      O        0.97220    0.01160    0.92670    1.000
    H9       H        0.24940    0.98090    0.33840    1.000
    O28      O        0.81920    0.55050    0.29350    1.000
    O29      O        0.94280    0.47520    0.34130    1.000
    C28      C        0.87520    0.49160    0.28900    1.000
    C29      C        0.86880    0.42190    0.21020    1.000
    C30      C        0.79560    0.43490    0.15140    1.000
    N10      N        0.06850    0.45860    0.55610    1.000
    O30      O        0.02780    0.51160    0.57330    1.000
    H10      H        0.75060    0.48090    0.16160    1.000
    O31      O        0.68080    0.44950    0.79350    1.000
    O32      O        0.55720    0.52480    0.84130    1.000
    C31      C        0.62480    0.50840    0.78900    1.000
    C32      C        0.63120    0.57810    0.71020    1.000
    C33      C        0.70440    0.56510    0.65140    1.000
    N11      N        0.43150    0.54140    0.05610    1.000
    O33      O        0.47220    0.48840    0.07330    1.000
    H11      H        0.74940    0.51910    0.66160    1.000
    O34      O        0.31920    0.94950    0.70650    1.000
    O35      O        0.44280    0.02480    0.65870    1.000
    C34      C        0.37520    0.00840    0.71100    1.000
    C35      C        0.36880    0.07810    0.78980    1.000
    C36      C        0.29560    0.06510    0.84860    1.000
    N12      N        0.56850    0.04140    0.44390    1.000
    O36      O        0.52780    0.98840    0.42670    1.000
    H12      H        0.25060    0.01910    0.83840    1.000
    Zn1      Zn       0.18670    0.18670    0.18670    1.000
    Zn2      Zn       0.04680    0.04680    0.04680    1.000
    O37      O        0.89530    0.89530    0.89530    1.000
    Zn3      Zn       0.31330    0.81330    0.68670    1.000
    Zn4      Zn       0.45320    0.95320    0.54680    1.000
    O38      O        0.60470    0.10470    0.39530    1.000
    Zn5      Zn       0.81330    0.68670    0.31330    1.000
    Zn6      Zn       0.95320    0.54680    0.45320    1.000
    O39      O        0.10470    0.39530    0.60470    1.000
    Zn7      Zn       0.68670    0.31330    0.81330    1.000
    Zn8      Zn       0.54680    0.45320    0.95320    1.000
    O40      O        0.39530    0.60470    0.10470    1.000
