# CIF file generated by openbabel 3.1.0, see https://openbabel.org
data_I
_chemical_name_common 'image0'
_cell_length_a 10.1676
_cell_length_b 17.3
_cell_length_c 17.485
_cell_angle_alpha 90
_cell_angle_beta 91.708
_cell_angle_gamma 90
_space_group_name_H-M_alt 'P 1'
_space_group_name_Hall 'P 1'
loop_
    _symmetry_equiv_pos_as_xyz
    x,y,z
loop_
    _atom_site_label
    _atom_site_type_symbol
    _atom_site_fract_x
    _atom_site_fract_y
    _atom_site_fract_z
    _atom_site_occupancy
    Cd1      Cd       0.82736    0.36320    0.01990    1.000
    N1       N        0.81070    0.39705    0.89178    1.000
    N2       N        0.86190    0.51903    0.63499    1.000
    N3       N        0.09920    0.73816    0.51087    1.000
    C1       C        0.71210    0.37120    0.84620    1.000
    H1       H        0.64810    0.33810    0.86730    1.000
    C2       C        0.69930    0.39050    0.76970    1.000
    H2       H        0.62720    0.37120    0.73960    1.000
    C3       C        0.79120    0.43800    0.73680    1.000
    C4       C        0.89220    0.46550    0.78470    1.000
    H3       H        0.95680    0.49930    0.76520    1.000
    C5       C        0.89890    0.44390    0.86050    1.000
    H4       H        0.96930    0.46320    0.89190    1.000
    C6       C        0.78450    0.46040    0.65469    1.000
    C7       C        0.70030    0.42200    0.60234    1.000
    H5       H        0.64830    0.37980    0.61850    1.000
    C8       C        0.69380    0.44670    0.52580    1.000
    C9       C        0.77420    0.50820    0.50640    1.000
    H6       H        0.77320    0.52670    0.45520    1.000
    C10      C        0.85650    0.54270    0.56170    1.000
    C11      C        0.08080    0.71480    0.58170    1.000
    H7       H        0.12210    0.74330    0.62220    1.000
    C12      C        0.00530    0.65170    0.60050    1.000
    H8       H        0.99630    0.63750    0.65260    1.000
    C13      C        0.94240    0.60900    0.54270    1.000
    C14      C        0.96750    0.63130    0.46830    1.000
    H9       H        0.93070    0.60290    0.42640    1.000
    C15      C        0.04540    0.69440    0.45520    1.000
    H10      H        0.06210    0.70770    0.40360    1.000
    C16      C        0.60320    0.40950    0.46866    1.000
    C17      C        0.55590    0.33520    0.47910    1.000
    H11      H        0.58350    0.30680    0.52320    1.000
    C18      C        0.46920    0.30160    0.42630    1.000
    H12      H        0.43700    0.25080    0.43430    1.000
    C19      C        0.43020    0.34280    0.36200    1.000
    C20      C        0.47740    0.41650    0.34974    1.000
    H13      H        0.45150    0.44410    0.30480    1.000
    C21      C        0.56230    0.44960    0.40300    1.000
    H14      H        0.59360    0.50060    0.39490    1.000
    C22      C        0.34170    0.32600    0.23580    1.000
    C23      C        0.22150    0.34150    0.19860    1.000
    H15      H        0.14280    0.34170    0.22650    1.000
    C24      C        0.21690    0.35650    0.12051    1.000
    C25      C        0.33300    0.35590    0.08030    1.000
    H16      H        0.33060    0.36630    0.02690    1.000
    C26      C        0.45290    0.34020    0.11790    1.000
    C27      C        0.45560    0.32440    0.19590    1.000
    H17      H        0.53660    0.31240    0.22160    1.000
    C28      C        0.08660    0.37090    0.08060    1.000
    C29      C        0.58000    0.34070    0.07620    1.000
    O1       O        0.08100    0.39176    0.01190    1.000
    O2       O        0.98460    0.35884    0.11806    1.000
    O3       O        0.58040    0.36262    0.00762    1.000
    O4       O        0.68340    0.31975    0.11185    1.000
    O5       O        0.33870    0.30758    0.31304    1.000
    Cd2      Cd       0.17264    0.86320    0.48010    1.000
    N4       N        0.18930    0.89705    0.60822    1.000
    N5       N        0.13810    0.01903    0.86501    1.000
    N6       N        0.90080    0.23816    0.98913    1.000
    C30      C        0.28790    0.87120    0.65380    1.000
    H18      H        0.35190    0.83810    0.63270    1.000
    C31      C        0.30070    0.89050    0.73030    1.000
    H19      H        0.37280    0.87120    0.76040    1.000
    C32      C        0.20880    0.93800    0.76320    1.000
    C33      C        0.10780    0.96550    0.71530    1.000
    H20      H        0.04320    0.99930    0.73480    1.000
    C34      C        0.10110    0.94390    0.63950    1.000
    H21      H        0.03070    0.96320    0.60810    1.000
    C35      C        0.21550    0.96040    0.84531    1.000
    C36      C        0.29970    0.92200    0.89766    1.000
    H22      H        0.35170    0.87980    0.88150    1.000
    C37      C        0.30620    0.94670    0.97420    1.000
    C38      C        0.22580    0.00820    0.99360    1.000
    H23      H        0.22680    0.02670    0.04480    1.000
    C39      C        0.14350    0.04270    0.93830    1.000
    C40      C        0.91920    0.21480    0.91830    1.000
    H24      H        0.87790    0.24330    0.87780    1.000
    C41      C        0.99470    0.15170    0.89950    1.000
    H25      H        0.00370    0.13750    0.84740    1.000
    C42      C        0.05760    0.10900    0.95730    1.000
    C43      C        0.03250    0.13130    0.03170    1.000
    H26      H        0.06930    0.10290    0.07360    1.000
    C44      C        0.95460    0.19440    0.04480    1.000
    H27      H        0.93790    0.20770    0.09640    1.000
    C45      C        0.39680    0.90950    0.03134    1.000
    C46      C        0.44410    0.83520    0.02090    1.000
    H28      H        0.41650    0.80680    0.97680    1.000
    C47      C        0.53080    0.80160    0.07370    1.000
    H29      H        0.56300    0.75080    0.06570    1.000
    C48      C        0.56980    0.84280    0.13800    1.000
    C49      C        0.52260    0.91650    0.15026    1.000
    H30      H        0.54850    0.94410    0.19520    1.000
    C50      C        0.43770    0.94960    0.09700    1.000
    H31      H        0.40640    0.00060    0.10510    1.000
    C51      C        0.65830    0.82600    0.26420    1.000
    C52      C        0.77850    0.84150    0.30140    1.000
    H32      H        0.85720    0.84170    0.27350    1.000
    C53      C        0.78310    0.85650    0.37949    1.000
    C54      C        0.66700    0.85590    0.41970    1.000
    H33      H        0.66940    0.86630    0.47310    1.000
    C55      C        0.54710    0.84020    0.38210    1.000
    C56      C        0.54440    0.82440    0.30410    1.000
    H34      H        0.46340    0.81240    0.27840    1.000
    C57      C        0.91340    0.87090    0.41940    1.000
    C58      C        0.42000    0.84070    0.42380    1.000
    O6       O        0.91900    0.89176    0.48810    1.000
    O7       O        0.01540    0.85884    0.38194    1.000
    O8       O        0.41960    0.86262    0.49238    1.000
    O9       O        0.31660    0.81975    0.38815    1.000
    O10      O        0.66130    0.80758    0.18696    1.000
    Cd3      Cd       0.17264    0.63680    0.98010    1.000
    N7       N        0.18930    0.60295    0.10822    1.000
    N8       N        0.13810    0.48097    0.36501    1.000
    N9       N        0.90080    0.26184    0.48913    1.000
    C59      C        0.28790    0.62880    0.15380    1.000
    H35      H        0.35190    0.66190    0.13270    1.000
    C60      C        0.30070    0.60950    0.23030    1.000
    H36      H        0.37280    0.62880    0.26040    1.000
    C61      C        0.20880    0.56200    0.26320    1.000
    C62      C        0.10780    0.53450    0.21530    1.000
    H37      H        0.04320    0.50070    0.23480    1.000
    C63      C        0.10110    0.55610    0.13950    1.000
    H38      H        0.03070    0.53680    0.10810    1.000
    C64      C        0.21550    0.53960    0.34531    1.000
    C65      C        0.29970    0.57800    0.39766    1.000
    H39      H        0.35170    0.62020    0.38150    1.000
    C66      C        0.30620    0.55330    0.47420    1.000
    C67      C        0.22580    0.49180    0.49360    1.000
    H40      H        0.22680    0.47330    0.54480    1.000
    C68      C        0.14350    0.45730    0.43830    1.000
    C69      C        0.91920    0.28520    0.41830    1.000
    H41      H        0.87790    0.25670    0.37780    1.000
    C70      C        0.99470    0.34830    0.39950    1.000
    H42      H        0.00370    0.36250    0.34740    1.000
    C71      C        0.05760    0.39100    0.45730    1.000
    C72      C        0.03250    0.36870    0.53170    1.000
    H43      H        0.06930    0.39710    0.57360    1.000
    C73      C        0.95460    0.30560    0.54480    1.000
    H44      H        0.93790    0.29230    0.59640    1.000
    C74      C        0.39680    0.59050    0.53134    1.000
    C75      C        0.44410    0.66480    0.52090    1.000
    H45      H        0.41650    0.69320    0.47680    1.000
    C76      C        0.53080    0.69840    0.57370    1.000
    H46      H        0.56300    0.74920    0.56570    1.000
    C77      C        0.56980    0.65720    0.63800    1.000
    C78      C        0.52260    0.58350    0.65026    1.000
    H47      H        0.54850    0.55590    0.69520    1.000
    C79      C        0.43770    0.55040    0.59700    1.000
    H48      H        0.40640    0.49940    0.60510    1.000
    C80      C        0.65830    0.67400    0.76420    1.000
    C81      C        0.77850    0.65850    0.80140    1.000
    H49      H        0.85720    0.65830    0.77350    1.000
    C82      C        0.78310    0.64350    0.87949    1.000
    C83      C        0.66700    0.64410    0.91970    1.000
    H50      H        0.66940    0.63370    0.97310    1.000
    C84      C        0.54710    0.65980    0.88210    1.000
    C85      C        0.54440    0.67560    0.80410    1.000
    H51      H        0.46340    0.68760    0.77840    1.000
    C86      C        0.91340    0.62910    0.91940    1.000
    C87      C        0.42000    0.65930    0.92380    1.000
    O11      O        0.91900    0.60824    0.98810    1.000
    O12      O        0.01540    0.64116    0.88194    1.000
    O13      O        0.41960    0.63738    0.99238    1.000
    O14      O        0.31660    0.68025    0.88815    1.000
    O15      O        0.66130    0.69242    0.68696    1.000
    Cd4      Cd       0.82736    0.13680    0.51990    1.000
    N10      N        0.81070    0.10295    0.39178    1.000
    N11      N        0.86190    0.98097    0.13499    1.000
    N12      N        0.09920    0.76184    0.01087    1.000
    C88      C        0.71210    0.12880    0.34620    1.000
    H52      H        0.64810    0.16190    0.36730    1.000
    C89      C        0.69930    0.10950    0.26970    1.000
    H53      H        0.62720    0.12880    0.23960    1.000
    C90      C        0.79120    0.06200    0.23680    1.000
    C91      C        0.89220    0.03450    0.28470    1.000
    H54      H        0.95680    0.00070    0.26520    1.000
    C92      C        0.89890    0.05610    0.36050    1.000
    H55      H        0.96930    0.03680    0.39190    1.000
    C93      C        0.78450    0.03960    0.15469    1.000
    C94      C        0.70030    0.07800    0.10234    1.000
    H56      H        0.64830    0.12020    0.11850    1.000
    C95      C        0.69380    0.05330    0.02580    1.000
    C96      C        0.77420    0.99180    0.00640    1.000
    H57      H        0.77320    0.97330    0.95520    1.000
    C97      C        0.85650    0.95730    0.06170    1.000
    C98      C        0.08080    0.78520    0.08170    1.000
    H58      H        0.12210    0.75670    0.12220    1.000
    C99      C        0.00530    0.84830    0.10050    1.000
    H59      H        0.99630    0.86250    0.15260    1.000
    C100     C        0.94240    0.89100    0.04270    1.000
    C101     C        0.96750    0.86870    0.96830    1.000
    H60      H        0.93070    0.89710    0.92640    1.000
    C102     C        0.04540    0.80560    0.95520    1.000
    H61      H        0.06210    0.79230    0.90360    1.000
    C103     C        0.60320    0.09050    0.96866    1.000
    C104     C        0.55590    0.16480    0.97910    1.000
    H62      H        0.58350    0.19320    0.02320    1.000
    C105     C        0.46920    0.19840    0.92630    1.000
    H63      H        0.43700    0.24920    0.93430    1.000
    C106     C        0.43020    0.15720    0.86200    1.000
    C107     C        0.47740    0.08350    0.84974    1.000
    H64      H        0.45150    0.05590    0.80480    1.000
    C108     C        0.56230    0.05040    0.90300    1.000
    H65      H        0.59360    0.99940    0.89490    1.000
    C109     C        0.34170    0.17400    0.73580    1.000
    C110     C        0.22150    0.15850    0.69860    1.000
    H66      H        0.14280    0.15830    0.72650    1.000
    C111     C        0.21690    0.14350    0.62051    1.000
    C112     C        0.33300    0.14410    0.58030    1.000
    H67      H        0.33060    0.13370    0.52690    1.000
    C113     C        0.45290    0.15980    0.61790    1.000
    C114     C        0.45560    0.17560    0.69590    1.000
    H68      H        0.53660    0.18760    0.72160    1.000
    C115     C        0.08660    0.12910    0.58060    1.000
    C116     C        0.58000    0.15930    0.57620    1.000
    O16      O        0.08100    0.10824    0.51190    1.000
    O17      O        0.98460    0.14116    0.61806    1.000
    O18      O        0.58040    0.13738    0.50762    1.000
    O19      O        0.68340    0.18025    0.61185    1.000
    O20      O        0.33870    0.19242    0.81304    1.000
