# CIF file generated by openbabel 3.1.0, see https://openbabel.org
data_I
_chemical_name_common 'image0'
_cell_length_a 23.714
_cell_length_b 23.714
_cell_length_c 16.575
_cell_angle_alpha 90
_cell_angle_beta 90
_cell_angle_gamma 90
_space_group_name_H-M_alt 'P 1'
_space_group_name_Hall 'P 1'
loop_
    _symmetry_equiv_pos_as_xyz
    x,y,z
loop_
    _atom_site_label
    _atom_site_type_symbol
    _atom_site_fract_x
    _atom_site_fract_y
    _atom_site_fract_z
    _atom_site_occupancy
    Ce1      Ce       0.37054    0.64558    0.08940    1.000
    O1       O        0.33690    0.55710    0.02890    1.000
    O2       O        0.31790    0.63670    0.96440    1.000
    O3       O        0.20270    0.62820    0.71130    1.000
    O4       O        0.19090    0.54690    0.64990    1.000
    O5       O        0.15990    0.40300    0.86060    1.000
    O6       O        0.35210    0.39360    0.83990    1.000
    C1       C        0.31580    0.58260    0.96970    1.000
    C2       C        0.28640    0.54970    0.90440    1.000
    C3       C        0.26290    0.57710    0.84080    1.000
    H1       H        0.26450    0.61710    0.83800    1.000
    C4       C        0.20810    0.57520    0.71030    1.000
    C5       C        0.23600    0.54610    0.77840    1.000
    C6       C        0.23370    0.48920    0.78310    1.000
    H2       H        0.21460    0.46850    0.74230    1.000
    C7       C        0.25950    0.46000    0.84840    1.000
    C8       C        0.28550    0.49020    0.90940    1.000
    H3       H        0.30230    0.47130    0.95380    1.000
    C9       C        0.20200    0.37310    0.85680    1.000
    C10      C        0.20130    0.31060    0.85700    1.000
    C11      C        0.25130    0.28010    0.85670    1.000
    C12      C        0.30370    0.30720    0.85540    1.000
    C13      C        0.30850    0.36950    0.85040    1.000
    C14      C        0.35340    0.27520    0.85630    1.000
    H4       H        0.38900    0.29370    0.85540    1.000
    C15      C        0.35100    0.21460    0.85860    1.000
    H5       H        0.38440    0.19270    0.86110    1.000
    N1       N        0.25700    0.39870    0.85350    1.000
    Ce2      Ce       0.12946    0.85442    0.08940    1.000
    O7       O        0.16310    0.94290    0.02890    1.000
    O8       O        0.18210    0.86330    0.96440    1.000
    O9       O        0.29730    0.87180    0.71130    1.000
    O10      O        0.30910    0.95310    0.64990    1.000
    O11      O        0.34010    0.09700    0.86060    1.000
    O12      O        0.14790    0.10640    0.83990    1.000
    C16      C        0.18420    0.91740    0.96970    1.000
    C17      C        0.21360    0.95030    0.90440    1.000
    C18      C        0.23710    0.92290    0.84080    1.000
    H6       H        0.23550    0.88290    0.83800    1.000
    C19      C        0.29190    0.92480    0.71030    1.000
    C20      C        0.26400    0.95390    0.77840    1.000
    C21      C        0.26630    0.01080    0.78310    1.000
    H7       H        0.28540    0.03150    0.74230    1.000
    C22      C        0.24050    0.04000    0.84840    1.000
    C23      C        0.21450    0.00980    0.90940    1.000
    H8       H        0.19770    0.02870    0.95380    1.000
    C24      C        0.29800    0.12690    0.85680    1.000
    C25      C        0.29870    0.18940    0.85700    1.000
    C26      C        0.24870    0.21990    0.85670    1.000
    C27      C        0.19630    0.19280    0.85540    1.000
    C28      C        0.19150    0.13050    0.85040    1.000
    C29      C        0.14660    0.22480    0.85630    1.000
    H9       H        0.11100    0.20630    0.85540    1.000
    C30      C        0.14900    0.28540    0.85860    1.000
    H10      H        0.11560    0.30730    0.86110    1.000
    N2       N        0.24300    0.10130    0.85350    1.000
    Ce3      Ce       0.35442    0.87054    0.58940    1.000
    O13      O        0.44290    0.83690    0.52890    1.000
    O14      O        0.36330    0.81790    0.46440    1.000
    O15      O        0.37180    0.70270    0.21130    1.000
    O16      O        0.45310    0.69090    0.14990    1.000
    O17      O        0.59700    0.65990    0.36060    1.000
    O18      O        0.60640    0.85210    0.33990    1.000
    C31      C        0.41740    0.81580    0.46970    1.000
    C32      C        0.45030    0.78640    0.40440    1.000
    C33      C        0.42290    0.76290    0.34080    1.000
    H11      H        0.38290    0.76450    0.33800    1.000
    C34      C        0.42480    0.70810    0.21030    1.000
    C35      C        0.45390    0.73600    0.27840    1.000
    C36      C        0.51080    0.73370    0.28310    1.000
    H12      H        0.53150    0.71460    0.24230    1.000
    C37      C        0.54000    0.75950    0.34840    1.000
    C38      C        0.50980    0.78550    0.40940    1.000
    H13      H        0.52870    0.80230    0.45380    1.000
    C39      C        0.62690    0.70200    0.35680    1.000
    C40      C        0.68940    0.70130    0.35700    1.000
    C41      C        0.71990    0.75130    0.35670    1.000
    C42      C        0.69280    0.80370    0.35540    1.000
    C43      C        0.63050    0.80850    0.35040    1.000
    C44      C        0.72480    0.85340    0.35630    1.000
    H14      H        0.70630    0.88900    0.35540    1.000
    C45      C        0.78540    0.85100    0.35860    1.000
    H15      H        0.80730    0.88440    0.36110    1.000
    N3       N        0.60130    0.75700    0.35350    1.000
    Ce4      Ce       0.14558    0.62946    0.58940    1.000
    O19      O        0.05710    0.66310    0.52890    1.000
    O20      O        0.13670    0.68210    0.46440    1.000
    O21      O        0.12820    0.79730    0.21130    1.000
    O22      O        0.04690    0.80910    0.14990    1.000
    O23      O        0.90300    0.84010    0.36060    1.000
    O24      O        0.89360    0.64790    0.33990    1.000
    C46      C        0.08260    0.68420    0.46970    1.000
    C47      C        0.04970    0.71360    0.40440    1.000
    C48      C        0.07710    0.73710    0.34080    1.000
    H16      H        0.11710    0.73550    0.33800    1.000
    C49      C        0.07520    0.79190    0.21030    1.000
    C50      C        0.04610    0.76400    0.27840    1.000
    C51      C        0.98920    0.76630    0.28310    1.000
    H17      H        0.96850    0.78540    0.24230    1.000
    C52      C        0.96000    0.74050    0.34840    1.000
    C53      C        0.99020    0.71450    0.40940    1.000
    H18      H        0.97130    0.69770    0.45380    1.000
    C54      C        0.87310    0.79800    0.35680    1.000
    C55      C        0.81060    0.79870    0.35700    1.000
    C56      C        0.78010    0.74870    0.35670    1.000
    C57      C        0.80720    0.69630    0.35540    1.000
    C58      C        0.86950    0.69150    0.35040    1.000
    C59      C        0.77520    0.64660    0.35630    1.000
    H19      H        0.79370    0.61100    0.35540    1.000
    C60      C        0.71460    0.64900    0.35860    1.000
    H20      H        0.69270    0.61560    0.36110    1.000
    N4       N        0.89870    0.74300    0.35350    1.000
    Ce5      Ce       0.62946    0.35442    0.91060    1.000
    O25      O        0.66310    0.44290    0.97110    1.000
    O26      O        0.68210    0.36330    0.03560    1.000
    O27      O        0.79730    0.37180    0.28870    1.000
    O28      O        0.80910    0.45310    0.35010    1.000
    O29      O        0.84010    0.59700    0.13940    1.000
    O30      O        0.64790    0.60640    0.16010    1.000
    C61      C        0.68420    0.41740    0.03030    1.000
    C62      C        0.71360    0.45030    0.09560    1.000
    C63      C        0.73710    0.42290    0.15920    1.000
    H21      H        0.73550    0.38290    0.16200    1.000
    C64      C        0.79190    0.42480    0.28970    1.000
    C65      C        0.76400    0.45390    0.22160    1.000
    C66      C        0.76630    0.51080    0.21690    1.000
    H22      H        0.78540    0.53150    0.25770    1.000
    C67      C        0.74050    0.54000    0.15160    1.000
    C68      C        0.71450    0.50980    0.09060    1.000
    H23      H        0.69770    0.52870    0.04620    1.000
    C69      C        0.79800    0.62690    0.14320    1.000
    C70      C        0.79870    0.68940    0.14300    1.000
    C71      C        0.74870    0.71990    0.14330    1.000
    C72      C        0.69630    0.69280    0.14460    1.000
    C73      C        0.69150    0.63050    0.14960    1.000
    C74      C        0.64660    0.72480    0.14370    1.000
    H24      H        0.61100    0.70630    0.14460    1.000
    C75      C        0.64900    0.78540    0.14140    1.000
    H25      H        0.61560    0.80730    0.13890    1.000
    N5       N        0.74300    0.60130    0.14650    1.000
    Ce6      Ce       0.87054    0.14558    0.91060    1.000
    O31      O        0.83690    0.05710    0.97110    1.000
    O32      O        0.81790    0.13670    0.03560    1.000
    O33      O        0.70270    0.12820    0.28870    1.000
    O34      O        0.69090    0.04690    0.35010    1.000
    O35      O        0.65990    0.90300    0.13940    1.000
    O36      O        0.85210    0.89360    0.16010    1.000
    C76      C        0.81580    0.08260    0.03030    1.000
    C77      C        0.78640    0.04970    0.09560    1.000
    C78      C        0.76290    0.07710    0.15920    1.000
    H26      H        0.76450    0.11710    0.16200    1.000
    C79      C        0.70810    0.07520    0.28970    1.000
    C80      C        0.73600    0.04610    0.22160    1.000
    C81      C        0.73370    0.98920    0.21690    1.000
    H27      H        0.71460    0.96850    0.25770    1.000
    C82      C        0.75950    0.96000    0.15160    1.000
    C83      C        0.78550    0.99020    0.09060    1.000
    H28      H        0.80230    0.97130    0.04620    1.000
    C84      C        0.70200    0.87310    0.14320    1.000
    C85      C        0.70130    0.81060    0.14300    1.000
    C86      C        0.75130    0.78010    0.14330    1.000
    C87      C        0.80370    0.80720    0.14460    1.000
    C88      C        0.80850    0.86950    0.14960    1.000
    C89      C        0.85340    0.77520    0.14370    1.000
    H29      H        0.88900    0.79370    0.14460    1.000
    C90      C        0.85100    0.71460    0.14140    1.000
    H30      H        0.88440    0.69270    0.13890    1.000
    N6       N        0.75700    0.89870    0.14650    1.000
    Ce7      Ce       0.64558    0.12946    0.41060    1.000
    O37      O        0.55710    0.16310    0.47110    1.000
    O38      O        0.63670    0.18210    0.53560    1.000
    O39      O        0.62820    0.29730    0.78870    1.000
    O40      O        0.54690    0.30910    0.85010    1.000
    O41      O        0.40300    0.34010    0.63940    1.000
    O42      O        0.39360    0.14790    0.66010    1.000
    C91      C        0.58260    0.18420    0.53030    1.000
    C92      C        0.54970    0.21360    0.59560    1.000
    C93      C        0.57710    0.23710    0.65920    1.000
    H31      H        0.61710    0.23550    0.66200    1.000
    C94      C        0.57520    0.29190    0.78970    1.000
    C95      C        0.54610    0.26400    0.72160    1.000
    C96      C        0.48920    0.26630    0.71690    1.000
    H32      H        0.46850    0.28540    0.75770    1.000
    C97      C        0.46000    0.24050    0.65160    1.000
    C98      C        0.49020    0.21450    0.59060    1.000
    H33      H        0.47130    0.19770    0.54620    1.000
    C99      C        0.37310    0.29800    0.64320    1.000
    C100     C        0.31060    0.29870    0.64300    1.000
    C101     C        0.28010    0.24870    0.64330    1.000
    C102     C        0.30720    0.19630    0.64460    1.000
    C103     C        0.36950    0.19150    0.64960    1.000
    C104     C        0.27520    0.14660    0.64370    1.000
    H34      H        0.29370    0.11100    0.64460    1.000
    C105     C        0.21460    0.14900    0.64140    1.000
    H35      H        0.19270    0.11560    0.63890    1.000
    N7       N        0.39870    0.24300    0.64650    1.000
    Ce8      Ce       0.85442    0.37054    0.41060    1.000
    O43      O        0.94290    0.33690    0.47110    1.000
    O44      O        0.86330    0.31790    0.53560    1.000
    O45      O        0.87180    0.20270    0.78870    1.000
    O46      O        0.95310    0.19090    0.85010    1.000
    O47      O        0.09700    0.15990    0.63940    1.000
    O48      O        0.10640    0.35210    0.66010    1.000
    C106     C        0.91740    0.31580    0.53030    1.000
    C107     C        0.95030    0.28640    0.59560    1.000
    C108     C        0.92290    0.26290    0.65920    1.000
    H36      H        0.88290    0.26450    0.66200    1.000
    C109     C        0.92480    0.20810    0.78970    1.000
    C110     C        0.95390    0.23600    0.72160    1.000
    C111     C        0.01080    0.23370    0.71690    1.000
    H37      H        0.03150    0.21460    0.75770    1.000
    C112     C        0.04000    0.25950    0.65160    1.000
    C113     C        0.00980    0.28550    0.59060    1.000
    H38      H        0.02870    0.30230    0.54620    1.000
    C114     C        0.12690    0.20200    0.64320    1.000
    C115     C        0.18940    0.20130    0.64300    1.000
    C116     C        0.21990    0.25130    0.64330    1.000
    C117     C        0.19280    0.30370    0.64460    1.000
    C118     C        0.13050    0.30850    0.64960    1.000
    C119     C        0.22480    0.35340    0.64370    1.000
    H39      H        0.20630    0.38900    0.64460    1.000
    C120     C        0.28540    0.35100    0.64140    1.000
    H40      H        0.30730    0.38440    0.63890    1.000
    N8       N        0.10130    0.25700    0.64650    1.000
