# CIF file generated by openbabel 3.1.0, see https://openbabel.org
data_I
_chemical_name_common 'image0'
_cell_length_a 9.4078
_cell_length_b 11.6538
_cell_length_c 32.6621
_cell_angle_alpha 90
_cell_angle_beta 90
_cell_angle_gamma 90
_space_group_name_H-M_alt 'P 1'
_space_group_name_Hall 'P 1'
loop_
    _symmetry_equiv_pos_as_xyz
    x,y,z
loop_
    _atom_site_label
    _atom_site_type_symbol
    _atom_site_fract_x
    _atom_site_fract_y
    _atom_site_fract_z
    _atom_site_occupancy
    Mn1      Mn       0.19316    0.09382    0.63759    1.000
    Mn2      Mn       0.24042    0.71462    0.59962    1.000
    Mn3      Mn       0.21617    0.40878    0.62589    1.000
    O1       O        0.32190    0.24650    0.60988    1.000
    O2       O        0.44170    0.10080    0.63596    1.000
    O3       O        0.69570    0.20610    0.61740    1.000
    O4       O        0.03260    0.32940    0.60074    1.000
    O5       O        0.98130    0.15590    0.62660    1.000
    O6       O        0.10560    0.57580    0.62643    1.000
    O7       O        0.98210    0.71880    0.60020    1.000
    O8       O        0.73140    0.61330    0.62468    1.000
    O9       O        0.39680    0.49300    0.65011    1.000
    O10      O        0.44730    0.64860    0.61215    1.000
    O11      O        0.69840    0.86920    0.46008    1.000
    O12      O        0.76270    0.04540    0.43962    1.000
    O13      O        0.50620    0.95320    0.51221    1.000
    O14      O        0.21730    0.00630    0.58000    1.000
    O15      O        0.32520    0.84410    0.56030    1.000
    O16      O        0.85400    0.87760    0.81171    1.000
    O17      O        0.77930    0.69500    0.80890    1.000
    O18      O        0.00080    0.83930    0.73797    1.000
    O19      O        0.23930    0.80990    0.65389    1.000
    O20      O        0.12210    0.96320    0.67693    1.000
    C1       C        0.43800    0.19680    0.61850    1.000
    C2       C        0.56920    0.25320    0.60470    1.000
    C3       C        0.59080    0.34270    0.57950    1.000
    H1       H        0.52040    0.38860    0.56660    1.000
    C4       C        0.73920    0.35460    0.57610    1.000
    H2       H        0.78790    0.40970    0.55990    1.000
    C5       C        0.80030    0.27350    0.59990    1.000
    C6       C        0.94920    0.25020    0.61020    1.000
    C7       C        0.98950    0.62600    0.61970    1.000
    C8       C        0.86170    0.57460    0.63840    1.000
    C9       C        0.84320    0.49120    0.66710    1.000
    H3       H        0.91610    0.45090    0.68120    1.000
    C10      C        0.69570    0.47590    0.67200    1.000
    H4       H        0.65020    0.42410    0.69020    1.000
    C11      C        0.63060    0.54980    0.64560    1.000
    C12      C        0.48090    0.56670    0.63480    1.000
    C13      C        0.69030    0.97570    0.46080    1.000
    C14      C        0.58410    0.02950    0.48870    1.000
    C15      C        0.53620    0.13560    0.49510    1.000
    H5       H        0.57190    0.20370    0.48280    1.000
    C16      C        0.42040    0.12890    0.52410    1.000
    H6       H        0.36500    0.19060    0.53450    1.000
    C17      C        0.40770    0.01710    0.53340    1.000
    C18      C        0.31150    0.95250    0.56040    1.000
    C19      C        0.85280    0.77680    0.79650    1.000
    C20      C        0.94490    0.75050    0.76140    1.000
    C21      C        0.99330    0.65090    0.74840    1.000
    H7       H        0.97030    0.57780    0.75950    1.000
    C22      C        0.08560    0.67200    0.71510    1.000
    H8       H        0.13670    0.61600    0.69990    1.000
    C23      C        0.08750    0.78620    0.70900    1.000
    C24      C        0.15420    0.85790    0.67730    1.000
    Mn4      Mn       0.30684    0.90618    0.13759    1.000
    Mn5      Mn       0.25958    0.28538    0.09962    1.000
    Mn6      Mn       0.28383    0.59122    0.12589    1.000
    O21      O        0.17810    0.75350    0.10988    1.000
    O22      O        0.05830    0.89920    0.13596    1.000
    O23      O        0.80430    0.79390    0.11740    1.000
    O24      O        0.46740    0.67060    0.10074    1.000
    O25      O        0.51870    0.84410    0.12660    1.000
    O26      O        0.39440    0.42420    0.12643    1.000
    O27      O        0.51790    0.28120    0.10020    1.000
    O28      O        0.76860    0.38670    0.12468    1.000
    O29      O        0.10320    0.50700    0.15011    1.000
    O30      O        0.05270    0.35140    0.11215    1.000
    O31      O        0.80160    0.13080    0.96008    1.000
    O32      O        0.73730    0.95460    0.93962    1.000
    O33      O        0.99380    0.04680    0.01221    1.000
    O34      O        0.28270    0.99370    0.08000    1.000
    O35      O        0.17480    0.15590    0.06030    1.000
    O36      O        0.64600    0.12240    0.31171    1.000
    O37      O        0.72070    0.30500    0.30890    1.000
    O38      O        0.49920    0.16070    0.23797    1.000
    O39      O        0.26070    0.19010    0.15389    1.000
    O40      O        0.37790    0.03680    0.17693    1.000
    C25      C        0.06200    0.80320    0.11850    1.000
    C26      C        0.93080    0.74680    0.10470    1.000
    C27      C        0.90920    0.65730    0.07950    1.000
    H9       H        0.97960    0.61140    0.06660    1.000
    C28      C        0.76080    0.64540    0.07610    1.000
    H10      H        0.71210    0.59030    0.05990    1.000
    C29      C        0.69970    0.72650    0.09990    1.000
    C30      C        0.55080    0.74980    0.11020    1.000
    C31      C        0.51050    0.37400    0.11970    1.000
    C32      C        0.63830    0.42540    0.13840    1.000
    C33      C        0.65680    0.50880    0.16710    1.000
    H11      H        0.58390    0.54910    0.18120    1.000
    C34      C        0.80430    0.52410    0.17200    1.000
    H12      H        0.84980    0.57590    0.19020    1.000
    C35      C        0.86940    0.45020    0.14560    1.000
    C36      C        0.01910    0.43330    0.13480    1.000
    C37      C        0.80970    0.02430    0.96080    1.000
    C38      C        0.91590    0.97050    0.98870    1.000
    C39      C        0.96380    0.86440    0.99510    1.000
    H13      H        0.92810    0.79630    0.98280    1.000
    C40      C        0.07960    0.87110    0.02410    1.000
    H14      H        0.13500    0.80940    0.03450    1.000
    C41      C        0.09230    0.98290    0.03340    1.000
    C42      C        0.18850    0.04750    0.06040    1.000
    C43      C        0.64720    0.22320    0.29650    1.000
    C44      C        0.55510    0.24950    0.26140    1.000
    C45      C        0.50670    0.34910    0.24840    1.000
    H15      H        0.52970    0.42220    0.25950    1.000
    C46      C        0.41440    0.32800    0.21510    1.000
    H16      H        0.36330    0.38400    0.19990    1.000
    C47      C        0.41250    0.21380    0.20900    1.000
    C48      C        0.34580    0.14210    0.17730    1.000
    Mn7      Mn       0.80684    0.59382    0.86241    1.000
    Mn8      Mn       0.75958    0.21462    0.90038    1.000
    Mn9      Mn       0.78383    0.90878    0.87411    1.000
    O41      O        0.67810    0.74650    0.89012    1.000
    O42      O        0.55830    0.60080    0.86404    1.000
    O43      O        0.30430    0.70610    0.88260    1.000
    O44      O        0.96740    0.82940    0.89926    1.000
    O45      O        0.01870    0.65590    0.87340    1.000
    O46      O        0.89440    0.07580    0.87357    1.000
    O47      O        0.01790    0.21880    0.89980    1.000
    O48      O        0.26860    0.11330    0.87532    1.000
    O49      O        0.60320    0.99300    0.84989    1.000
    O50      O        0.55270    0.14860    0.88785    1.000
    O51      O        0.30160    0.36920    0.03992    1.000
    O52      O        0.23730    0.54540    0.06038    1.000
    O53      O        0.49380    0.45320    0.98779    1.000
    O54      O        0.78270    0.50630    0.92000    1.000
    O55      O        0.67480    0.34410    0.93970    1.000
    O56      O        0.14600    0.37760    0.68829    1.000
    O57      O        0.22070    0.19500    0.69110    1.000
    O58      O        0.99920    0.33930    0.76203    1.000
    O59      O        0.76070    0.30990    0.84611    1.000
    O60      O        0.87790    0.46320    0.82307    1.000
    C49      C        0.56200    0.69680    0.88150    1.000
    C50      C        0.43080    0.75320    0.89530    1.000
    C51      C        0.40920    0.84270    0.92050    1.000
    H17      H        0.47960    0.88860    0.93340    1.000
    C52      C        0.26080    0.85460    0.92390    1.000
    H18      H        0.21210    0.90970    0.94010    1.000
    C53      C        0.19970    0.77350    0.90010    1.000
    C54      C        0.05080    0.75020    0.88980    1.000
    C55      C        0.01050    0.12600    0.88030    1.000
    C56      C        0.13830    0.07460    0.86160    1.000
    C57      C        0.15680    0.99120    0.83290    1.000
    H19      H        0.08390    0.95090    0.81880    1.000
    C58      C        0.30430    0.97590    0.82800    1.000
    H20      H        0.34980    0.92410    0.80980    1.000
    C59      C        0.36940    0.04980    0.85440    1.000
    C60      C        0.51910    0.06670    0.86520    1.000
    C61      C        0.30970    0.47570    0.03920    1.000
    C62      C        0.41590    0.52950    0.01130    1.000
    C63      C        0.46380    0.63560    0.00490    1.000
    H21      H        0.42810    0.70370    0.01720    1.000
    C64      C        0.57960    0.62890    0.97590    1.000
    H22      H        0.63500    0.69060    0.96550    1.000
    C65      C        0.59230    0.51710    0.96660    1.000
    C66      C        0.68850    0.45250    0.93960    1.000
    C67      C        0.14720    0.27680    0.70350    1.000
    C68      C        0.05510    0.25050    0.73860    1.000
    C69      C        0.00670    0.15090    0.75160    1.000
    H23      H        0.02970    0.07780    0.74050    1.000
    C70      C        0.91440    0.17200    0.78490    1.000
    H24      H        0.86330    0.11600    0.80010    1.000
    C71      C        0.91250    0.28620    0.79100    1.000
    C72      C        0.84580    0.35790    0.82270    1.000
    Mn10     Mn       0.69316    0.40618    0.36241    1.000
    Mn11     Mn       0.74042    0.78538    0.40038    1.000
    Mn12     Mn       0.71617    0.09122    0.37411    1.000
    O61      O        0.82190    0.25350    0.39012    1.000
    O62      O        0.94170    0.39920    0.36404    1.000
    O63      O        0.19570    0.29390    0.38260    1.000
    O64      O        0.53260    0.17060    0.39926    1.000
    O65      O        0.48130    0.34410    0.37340    1.000
    O66      O        0.60560    0.92420    0.37357    1.000
    O67      O        0.48210    0.78120    0.39980    1.000
    O68      O        0.23140    0.88670    0.37532    1.000
    O69      O        0.89680    0.00700    0.34989    1.000
    O70      O        0.94730    0.85140    0.38785    1.000
    O71      O        0.19840    0.63080    0.53992    1.000
    O72      O        0.26270    0.45460    0.56038    1.000
    O73      O        0.00620    0.54680    0.48779    1.000
    O74      O        0.71730    0.49370    0.42000    1.000
    O75      O        0.82520    0.65590    0.43970    1.000
    O76      O        0.35400    0.62240    0.18829    1.000
    O77      O        0.27930    0.80500    0.19110    1.000
    O78      O        0.50080    0.66070    0.26203    1.000
    O79      O        0.73930    0.69010    0.34611    1.000
    O80      O        0.62210    0.53680    0.32307    1.000
    C73      C        0.93800    0.30320    0.38150    1.000
    C74      C        0.06920    0.24680    0.39530    1.000
    C75      C        0.09080    0.15730    0.42050    1.000
    H25      H        0.02040    0.11140    0.43340    1.000
    C76      C        0.23920    0.14540    0.42390    1.000
    H26      H        0.28790    0.09030    0.44010    1.000
    C77      C        0.30030    0.22650    0.40010    1.000
    C78      C        0.44920    0.24980    0.38980    1.000
    C79      C        0.48950    0.87400    0.38030    1.000
    C80      C        0.36170    0.92540    0.36160    1.000
    C81      C        0.34320    0.00880    0.33290    1.000
    H27      H        0.41610    0.04910    0.31880    1.000
    C82      C        0.19570    0.02410    0.32800    1.000
    H28      H        0.15020    0.07590    0.30980    1.000
    C83      C        0.13060    0.95020    0.35440    1.000
    C84      C        0.98090    0.93330    0.36520    1.000
    C85      C        0.19030    0.52430    0.53920    1.000
    C86      C        0.08410    0.47050    0.51130    1.000
    C87      C        0.03620    0.36440    0.50490    1.000
    H29      H        0.07190    0.29630    0.51720    1.000
    C88      C        0.92040    0.37110    0.47590    1.000
    H30      H        0.86500    0.30940    0.46550    1.000
    C89      C        0.90770    0.48290    0.46660    1.000
    C90      C        0.81150    0.54750    0.43960    1.000
    C91      C        0.35280    0.72320    0.20350    1.000
    C92      C        0.44490    0.74950    0.23860    1.000
    C93      C        0.49330    0.84910    0.25160    1.000
    H31      H        0.47030    0.92220    0.24050    1.000
    C94      C        0.58560    0.82800    0.28490    1.000
    H32      H        0.63670    0.88400    0.30010    1.000
    C95      C        0.58750    0.71380    0.29100    1.000
    C96      C        0.65420    0.64210    0.32270    1.000
