# CIF file generated by openbabel 3.1.0, see https://openbabel.org
data_I
_chemical_name_common 'image0'
_cell_length_a 16.4276
_cell_length_b 13.6108
_cell_length_c 6.863
_cell_angle_alpha 90
_cell_angle_beta 90
_cell_angle_gamma 90
_space_group_name_H-M_alt 'P 1'
_space_group_name_Hall 'P 1'
loop_
    _symmetry_equiv_pos_as_xyz
    x,y,z
loop_
    _atom_site_label
    _atom_site_type_symbol
    _atom_site_fract_x
    _atom_site_fract_y
    _atom_site_fract_z
    _atom_site_occupancy
    O1       O        0.16479    0.83993    0.12879    1.000
    C1       C        0.03733    0.97102    0.82240    1.000
    H1       H        0.06342    0.93404    0.68297    1.000
    O2       O        0.66479    0.33993    0.62879    1.000
    C2       C        0.53733    0.47102    0.32240    1.000
    H2       H        0.56342    0.43404    0.18297    1.000
    O3       O        0.33521    0.83993    0.87121    1.000
    C3       C        0.46267    0.97102    0.17760    1.000
    H3       H        0.43658    0.93404    0.31703    1.000
    O4       O        0.83521    0.33993    0.37121    1.000
    C4       C        0.96267    0.47102    0.67760    1.000
    H4       H        0.93658    0.43404    0.81703    1.000
    O5       O        0.66479    0.16007    0.87121    1.000
    C5       C        0.53733    0.02898    0.17760    1.000
    H5       H        0.56342    0.06596    0.31703    1.000
    O6       O        0.16479    0.66007    0.37121    1.000
    C6       C        0.03733    0.52898    0.67760    1.000
    H6       H        0.06342    0.56596    0.81703    1.000
    O7       O        0.83521    0.16007    0.12879    1.000
    C7       C        0.96267    0.02898    0.82240    1.000
    H7       H        0.93658    0.06596    0.68297    1.000
    O8       O        0.33521    0.66007    0.62879    1.000
    C8       C        0.46267    0.52898    0.32240    1.000
    H8       H        0.43658    0.56596    0.18297    1.000
    O9       O        0.83521    0.16007    0.87121    1.000
    C9       C        0.96267    0.02898    0.17760    1.000
    H9       H        0.93658    0.06596    0.31703    1.000
    O10      O        0.33521    0.66007    0.37121    1.000
    C10      C        0.46267    0.52898    0.67760    1.000
    H10      H        0.43658    0.56596    0.81703    1.000
    O11      O        0.66479    0.16007    0.12879    1.000
    C11      C        0.53733    0.02898    0.82240    1.000
    H11      H        0.56342    0.06596    0.68297    1.000
    O12      O        0.16479    0.66007    0.62879    1.000
    C12      C        0.03733    0.52898    0.32240    1.000
    H12      H        0.06342    0.56596    0.18297    1.000
    O13      O        0.33521    0.83993    0.12879    1.000
    C13      C        0.46267    0.97102    0.82240    1.000
    H13      H        0.43658    0.93404    0.68297    1.000
    O14      O        0.83521    0.33993    0.62879    1.000
    C14      C        0.96267    0.47102    0.32240    1.000
    H14      H        0.93658    0.43404    0.18297    1.000
    O15      O        0.16479    0.83993    0.87121    1.000
    C15      C        0.03733    0.97102    0.17760    1.000
    H15      H        0.06342    0.93404    0.31703    1.000
    O16      O        0.66479    0.33993    0.37121    1.000
    C16      C        0.53733    0.47102    0.67760    1.000
    H16      H        0.56342    0.43404    0.81703    1.000
    C17      C        0.06831    0.94703    0.00000    1.000
    C18      C        0.12760    0.86979    0.00000    1.000
    C19      C        0.56831    0.44703    0.50000    1.000
    C20      C        0.62760    0.36979    0.50000    1.000
    C21      C        0.43169    0.94703    0.00000    1.000
    C22      C        0.37240    0.86979    0.00000    1.000
    C23      C        0.93169    0.44703    0.50000    1.000
    C24      C        0.87240    0.36979    0.50000    1.000
    C25      C        0.56831    0.05297    0.00000    1.000
    C26      C        0.62760    0.13021    0.00000    1.000
    C27      C        0.06831    0.55297    0.50000    1.000
    C28      C        0.12760    0.63021    0.50000    1.000
    C29      C        0.93169    0.05297    0.00000    1.000
    C30      C        0.87240    0.13021    0.00000    1.000
    C31      C        0.43169    0.55297    0.50000    1.000
    C32      C        0.37240    0.63021    0.50000    1.000
    Cr1      Cr       0.25000    0.75000    0.25000    1.000
    Cr2      Cr       0.25000    0.75000    0.75000    1.000
    Cr3      Cr       0.75000    0.25000    0.75000    1.000
    Cr4      Cr       0.75000    0.25000    0.25000    1.000
    O17      O        0.25000    0.72457    0.00000    1.000
    O18      O        0.75000    0.22457    0.50000    1.000
    O19      O        0.75000    0.27543    0.00000    1.000
    O20      O        0.25000    0.77543    0.50000    1.000
