# CIF file generated by openbabel 3.1.0, see https://openbabel.org
data_I
_chemical_name_common 'LAVTOT_clean'
_cell_length_a 10.267
_cell_length_b 10.267
_cell_length_c 14.462
_cell_angle_alpha 90
_cell_angle_beta 90
_cell_angle_gamma 90
_space_group_name_H-M_alt 'P 1'
_space_group_name_Hall 'P 1'
loop_
    _symmetry_equiv_pos_as_xyz
    x,y,z
loop_
    _atom_site_label
    _atom_site_type_symbol
    _atom_site_fract_x
    _atom_site_fract_y
    _atom_site_fract_z
    _atom_site_occupancy
    Er1      Er       0.85258    0.85258    0.87500    1.000
    Er2      Er       0.14741    0.14741    0.37500    1.000
    Er3      Er       0.14741    0.85258    0.12500    1.000
    Er4      Er       0.85258    0.14741    0.62500    1.000
    H1       H        0.92540    0.44180    0.87140    1.000
    H2       H        0.07460    0.55820    0.37140    1.000
    H3       H        0.55820    0.92540    0.12140    1.000
    H4       H        0.44180    0.07460    0.62140    1.000
    H5       H        0.07460    0.44180    0.12860    1.000
    H6       H        0.92540    0.55820    0.62860    1.000
    H7       H        0.44180    0.92540    0.87860    1.000
    H8       H        0.55820    0.07460    0.37860    1.000
    H9       H        0.00000    0.10250    0.00000    1.000
    H10      H        0.00000    0.89750    0.50000    1.000
    H11      H        0.89750    0.00000    0.25000    1.000
    H12      H        0.10250    0.00000    0.75000    1.000
    C1       C        0.95560    0.39670    0.92290    1.000
    C2       C        0.95620    0.26080    0.92270    1.000
    C3       C        0.91320    0.18400    0.83950    1.000
    C4       C        0.04440    0.60330    0.42290    1.000
    C5       C        0.04380    0.73920    0.42270    1.000
    C6       C        0.08680    0.81600    0.33950    1.000
    C7       C        0.60330    0.95560    0.17290    1.000
    C8       C        0.73920    0.95620    0.17270    1.000
    C9       C        0.81600    0.91320    0.08950    1.000
    C10      C        0.39670    0.04440    0.67290    1.000
    C11      C        0.26080    0.04380    0.67270    1.000
    C12      C        0.18400    0.08680    0.58950    1.000
    C13      C        0.04440    0.39670    0.07710    1.000
    C14      C        0.04380    0.26080    0.07730    1.000
    C15      C        0.08680    0.18400    0.16050    1.000
    C16      C        0.95560    0.60330    0.57710    1.000
    C17      C        0.95620    0.73920    0.57730    1.000
    C18      C        0.91320    0.81600    0.66050    1.000
    C19      C        0.39670    0.95560    0.82710    1.000
    C20      C        0.26080    0.95620    0.82730    1.000
    C21      C        0.18400    0.91320    0.91050    1.000
    C22      C        0.60330    0.04440    0.32710    1.000
    C23      C        0.73920    0.04380    0.32730    1.000
    C24      C        0.81600    0.08680    0.41050    1.000
    C25      C        0.00000    0.46510    0.00000    1.000
    C26      C        0.00000    0.61060    0.00000    1.000
    C27      C        0.00000    0.19300    0.00000    1.000
    C28      C        0.00000    0.53490    0.50000    1.000
    C29      C        0.00000    0.38940    0.50000    1.000
    C30      C        0.00000    0.80700    0.50000    1.000
    C31      C        0.53490    0.00000    0.25000    1.000
    C32      C        0.38940    0.00000    0.25000    1.000
    C33      C        0.80700    0.00000    0.25000    1.000
    C34      C        0.46510    0.00000    0.75000    1.000
    C35      C        0.61060    0.00000    0.75000    1.000
    C36      C        0.19300    0.00000    0.75000    1.000
    O1       O        0.90570    0.24140    0.76286    1.000
    O2       O        0.92810    0.66530    0.94175    1.000
    O3       O        0.88840    0.06800    0.84960    1.000
    O4       O        0.09430    0.75860    0.26286    1.000
    O5       O        0.07190    0.33470    0.44175    1.000
    O6       O        0.11160    0.93200    0.34960    1.000
    O7       O        0.75860    0.90570    0.01286    1.000
    O8       O        0.33470    0.92810    0.19175    1.000
    O9       O        0.93200    0.88840    0.09960    1.000
    O10      O        0.24140    0.09430    0.51286    1.000
    O11      O        0.66530    0.07190    0.69175    1.000
    O12      O        0.06800    0.11160    0.59960    1.000
    O13      O        0.09430    0.24140    0.23714    1.000
    O14      O        0.07190    0.66530    0.05825    1.000
    O15      O        0.11160    0.06800    0.15040    1.000
    O16      O        0.90570    0.75860    0.73714    1.000
    O17      O        0.92810    0.33470    0.55825    1.000
    O18      O        0.88840    0.93200    0.65040    1.000
    O19      O        0.24140    0.90570    0.98714    1.000
    O20      O        0.66530    0.92810    0.80825    1.000
    O21      O        0.06800    0.88840    0.90040    1.000
    O22      O        0.75860    0.09430    0.48714    1.000
    O23      O        0.33470    0.07190    0.30825    1.000
    O24      O        0.93200    0.11160    0.40040    1.000
