# CIF file generated by openbabel 3.1.0, see https://openbabel.org
data_I
_chemical_name_common 'image0'
_cell_length_a 12.0317
_cell_length_b 19.515
_cell_length_c 17.2834
_cell_angle_alpha 90
_cell_angle_beta 122.332
_cell_angle_gamma 90
_space_group_name_H-M_alt 'P 1'
_space_group_name_Hall 'P 1'
loop_
    _symmetry_equiv_pos_as_xyz
    x,y,z
loop_
    _atom_site_label
    _atom_site_type_symbol
    _atom_site_fract_x
    _atom_site_fract_y
    _atom_site_fract_z
    _atom_site_occupancy
    Eu1      Eu       0.73544    0.73014    0.55654    1.000
    Eu2      Eu       0.68554    0.76747    0.76588    1.000
    Cl1      Cl       0.76445    0.80849    0.42863    1.000
    O1       O        0.44590    0.31177    0.57450    1.000
    O2       O        0.45710    0.32708    0.70510    1.000
    O3       O        0.71210    0.65130    0.74390    1.000
    O4       O        0.74880    0.62847    0.63380    1.000
    O5       O        0.96250    0.75100    0.16990    1.000
    O6       O        0.86240    0.73581    0.24340    1.000
    O7       O        0.45790    0.72680    0.65700    1.000
    O8       O        0.56790    0.73933    0.59030    1.000
    O9       O        0.83560    0.65258    0.51030    1.000
    O10      O        0.82430    0.65444    0.37830    1.000
    O11      O        0.64250    0.86825    0.67570    1.000
    O12      O        0.69990    0.84567    0.57530    1.000
    C1       C        0.53610    0.41520    0.65400    1.000
    C2       C        0.53420    0.46340    0.71220    1.000
    H1       H        0.49490    0.45290    0.74460    1.000
    C3       C        0.59020    0.52710    0.72170    1.000
    H2       H        0.58900    0.55930    0.76100    1.000
    C4       C        0.64860    0.54340    0.67350    1.000
    C5       C        0.64930    0.49560    0.61530    1.000
    H3       H        0.68790    0.50640    0.58240    1.000
    C6       C        0.59340    0.43170    0.60500    1.000
    H4       H        0.59430    0.39980    0.56540    1.000
    C7       C        0.47410    0.34660    0.64380    1.000
    C8       C        0.70760    0.61300    0.68420    1.000
    C9       C        0.09530    0.73270    0.32990    1.000
    C10      C        0.10680    0.69830    0.40350    1.000
    H5       H        0.03370    0.67690    0.39780    1.000
    C11      C        0.22640    0.69550    0.48560    1.000
    H6       H        0.23350    0.67220    0.53500    1.000
    C12      C        0.33540    0.72740    0.49460    1.000
    C13      C        0.32500    0.76000    0.42040    1.000
    H7       H        0.39870    0.78040    0.42580    1.000
    C14      C        0.20590    0.76270    0.33850    1.000
    H8       H        0.19960    0.78460    0.28850    1.000
    C15      C        0.96550    0.74010    0.24210    1.000
    C16      C        0.46090    0.73020    0.58640    1.000
    C17      C        0.93150    0.56160    0.47730    1.000
    C18      C        0.94980    0.52860    0.41520    1.000
    H9       H        0.91600    0.54760    0.35740    1.000
    C19      C        0.98230    0.53270    0.56300    1.000
    H10      H        0.97080    0.55460    0.60610    1.000
    C20      C        0.85770    0.62790    0.45350    1.000
    C21      C        0.57160    0.94360    0.55130    1.000
    C22      C        0.52920    0.94760    0.46000    1.000
    H11      H        0.54930    0.91260    0.43300    1.000
    C23      C        0.54360    0.99630    0.59190    1.000
    H12      H        0.57330    0.99410    0.65380    1.000
    C24      C        0.64580    0.88100    0.60610    1.000
    Eu3      Eu       0.26456    0.23014    0.94346    1.000
    Eu4      Eu       0.31446    0.26747    0.73412    1.000
    Cl2      Cl       0.23555    0.30849    0.07137    1.000
    O13      O        0.55410    0.81177    0.92550    1.000
    O14      O        0.54290    0.82708    0.79490    1.000
    O15      O        0.28790    0.15130    0.75610    1.000
    O16      O        0.25120    0.12847    0.86620    1.000
    O17      O        0.03750    0.25100    0.33010    1.000
    O18      O        0.13760    0.23581    0.25660    1.000
    O19      O        0.54210    0.22680    0.84300    1.000
    O20      O        0.43210    0.23933    0.90970    1.000
    O21      O        0.16440    0.15258    0.98970    1.000
    O22      O        0.17570    0.15444    0.12170    1.000
    O23      O        0.35750    0.36825    0.82430    1.000
    O24      O        0.30010    0.34567    0.92470    1.000
    C25      C        0.46390    0.91520    0.84600    1.000
    C26      C        0.46580    0.96340    0.78780    1.000
    H13      H        0.50510    0.95290    0.75540    1.000
    C27      C        0.40980    0.02710    0.77830    1.000
    H14      H        0.41100    0.05930    0.73900    1.000
    C28      C        0.35140    0.04340    0.82650    1.000
    C29      C        0.35070    0.99560    0.88470    1.000
    H15      H        0.31210    0.00640    0.91760    1.000
    C30      C        0.40660    0.93170    0.89500    1.000
    H16      H        0.40570    0.89980    0.93460    1.000
    C31      C        0.52590    0.84660    0.85620    1.000
    C32      C        0.29240    0.11300    0.81580    1.000
    C33      C        0.90470    0.23270    0.17010    1.000
    C34      C        0.89320    0.19830    0.09650    1.000
    H17      H        0.96630    0.17690    0.10220    1.000
    C35      C        0.77360    0.19550    0.01440    1.000
    H18      H        0.76650    0.17220    0.96500    1.000
    C36      C        0.66460    0.22740    0.00540    1.000
    C37      C        0.67500    0.26000    0.07960    1.000
    H19      H        0.60130    0.28040    0.07420    1.000
    C38      C        0.79410    0.26270    0.16150    1.000
    H20      H        0.80040    0.28460    0.21150    1.000
    C39      C        0.03450    0.24010    0.25790    1.000
    C40      C        0.53910    0.23020    0.91360    1.000
    C41      C        0.06850    0.06160    0.02270    1.000
    C42      C        0.05020    0.02860    0.08480    1.000
    H21      H        0.08400    0.04760    0.14260    1.000
    C43      C        0.01770    0.03270    0.93700    1.000
    H22      H        0.02920    0.05460    0.89390    1.000
    C44      C        0.14230    0.12790    0.04650    1.000
    C45      C        0.42840    0.44360    0.94870    1.000
    C46      C        0.47080    0.44760    0.04000    1.000
    H23      H        0.45070    0.41260    0.06700    1.000
    C47      C        0.45640    0.49630    0.90810    1.000
    H24      H        0.42670    0.49410    0.84620    1.000
    C48      C        0.35420    0.38100    0.89390    1.000
    Eu5      Eu       0.26456    0.26986    0.44346    1.000
    Eu6      Eu       0.31446    0.23253    0.23412    1.000
    Cl3      Cl       0.23555    0.19151    0.57137    1.000
    O25      O        0.55410    0.68823    0.42550    1.000
    O26      O        0.54290    0.67292    0.29490    1.000
    O27      O        0.28790    0.34870    0.25610    1.000
    O28      O        0.25120    0.37153    0.36620    1.000
    O29      O        0.03750    0.24900    0.83010    1.000
    O30      O        0.13760    0.26419    0.75660    1.000
    O31      O        0.54210    0.27320    0.34300    1.000
    O32      O        0.43210    0.26067    0.40970    1.000
    O33      O        0.16440    0.34742    0.48970    1.000
    O34      O        0.17570    0.34556    0.62170    1.000
    O35      O        0.35750    0.13175    0.32430    1.000
    O36      O        0.30010    0.15433    0.42470    1.000
    C49      C        0.46390    0.58480    0.34600    1.000
    C50      C        0.46580    0.53660    0.28780    1.000
    H25      H        0.50510    0.54710    0.25540    1.000
    C51      C        0.40980    0.47290    0.27830    1.000
    H26      H        0.41100    0.44070    0.23900    1.000
    C52      C        0.35140    0.45660    0.32650    1.000
    C53      C        0.35070    0.50440    0.38470    1.000
    H27      H        0.31210    0.49360    0.41760    1.000
    C54      C        0.40660    0.56830    0.39500    1.000
    H28      H        0.40570    0.60020    0.43460    1.000
    C55      C        0.52590    0.65340    0.35620    1.000
    C56      C        0.29240    0.38700    0.31580    1.000
    C57      C        0.90470    0.26730    0.67010    1.000
    C58      C        0.89320    0.30170    0.59650    1.000
    H29      H        0.96630    0.32310    0.60220    1.000
    C59      C        0.77360    0.30450    0.51440    1.000
    H30      H        0.76650    0.32780    0.46500    1.000
    C60      C        0.66460    0.27260    0.50540    1.000
    C61      C        0.67500    0.24000    0.57960    1.000
    H31      H        0.60130    0.21960    0.57420    1.000
    C62      C        0.79410    0.23730    0.66150    1.000
    H32      H        0.80040    0.21540    0.71150    1.000
    C63      C        0.03450    0.25990    0.75790    1.000
    C64      C        0.53910    0.26980    0.41360    1.000
    C65      C        0.06850    0.43840    0.52270    1.000
    C66      C        0.05020    0.47140    0.58480    1.000
    H33      H        0.08400    0.45240    0.64260    1.000
    C67      C        0.01770    0.46730    0.43700    1.000
    H34      H        0.02920    0.44540    0.39390    1.000
    C68      C        0.14230    0.37210    0.54650    1.000
    C69      C        0.42840    0.05640    0.44870    1.000
    C70      C        0.47080    0.05240    0.54000    1.000
    H35      H        0.45070    0.08740    0.56700    1.000
    C71      C        0.45640    0.00370    0.40810    1.000
    H36      H        0.42670    0.00590    0.34620    1.000
    C72      C        0.35420    0.11900    0.39390    1.000
    Eu7      Eu       0.73544    0.76986    0.05654    1.000
    Eu8      Eu       0.68554    0.73253    0.26588    1.000
    Cl4      Cl       0.76445    0.69151    0.92863    1.000
    O37      O        0.44590    0.18823    0.07450    1.000
    O38      O        0.45710    0.17292    0.20510    1.000
    O39      O        0.71210    0.84870    0.24390    1.000
    O40      O        0.74880    0.87153    0.13380    1.000
    O41      O        0.96250    0.74900    0.66990    1.000
    O42      O        0.86240    0.76419    0.74340    1.000
    O43      O        0.45790    0.77320    0.15700    1.000
    O44      O        0.56790    0.76067    0.09030    1.000
    O45      O        0.83560    0.84742    0.01030    1.000
    O46      O        0.82430    0.84556    0.87830    1.000
    O47      O        0.64250    0.63175    0.17570    1.000
    O48      O        0.69990    0.65433    0.07530    1.000
    C73      C        0.53610    0.08480    0.15400    1.000
    C74      C        0.53420    0.03660    0.21220    1.000
    H37      H        0.49490    0.04710    0.24460    1.000
    C75      C        0.59020    0.97290    0.22170    1.000
    H38      H        0.58900    0.94070    0.26100    1.000
    C76      C        0.64860    0.95660    0.17350    1.000
    C77      C        0.64930    0.00440    0.11530    1.000
    H39      H        0.68790    0.99360    0.08240    1.000
    C78      C        0.59340    0.06830    0.10500    1.000
    H40      H        0.59430    0.10020    0.06540    1.000
    C79      C        0.47410    0.15340    0.14380    1.000
    C80      C        0.70760    0.88700    0.18420    1.000
    C81      C        0.09530    0.76730    0.82990    1.000
    C82      C        0.10680    0.80170    0.90350    1.000
    H41      H        0.03370    0.82310    0.89780    1.000
    C83      C        0.22640    0.80450    0.98560    1.000
    H42      H        0.23350    0.82780    0.03500    1.000
    C84      C        0.33540    0.77260    0.99460    1.000
    C85      C        0.32500    0.74000    0.92040    1.000
    H43      H        0.39870    0.71960    0.92580    1.000
    C86      C        0.20590    0.73730    0.83850    1.000
    H44      H        0.19960    0.71540    0.78850    1.000
    C87      C        0.96550    0.75990    0.74210    1.000
    C88      C        0.46090    0.76980    0.08640    1.000
    C89      C        0.93150    0.93840    0.97730    1.000
    C90      C        0.94980    0.97140    0.91520    1.000
    H45      H        0.91600    0.95240    0.85740    1.000
    C91      C        0.98230    0.96730    0.06300    1.000
    H46      H        0.97080    0.94540    0.10610    1.000
    C92      C        0.85770    0.87210    0.95350    1.000
    C93      C        0.57160    0.55640    0.05130    1.000
    C94      C        0.52920    0.55240    0.96000    1.000
    H47      H        0.54930    0.58740    0.93300    1.000
    C95      C        0.54360    0.50370    0.09190    1.000
    H48      H        0.57330    0.50590    0.15380    1.000
    C96      C        0.64580    0.61900    0.10610    1.000
