# CIF file generated by openbabel 3.1.0, see https://openbabel.org
data_I
_chemical_name_common 'PEPKUR_clean'
_cell_length_a 6.8371
_cell_length_b 22.2721
_cell_length_c 7.7308
_cell_angle_alpha 90
_cell_angle_beta 90
_cell_angle_gamma 90
_space_group_name_H-M_alt 'P 1'
_space_group_name_Hall 'P 1'
loop_
    _symmetry_equiv_pos_as_xyz
    x,y,z
loop_
    _atom_site_label
    _atom_site_type_symbol
    _atom_site_fract_x
    _atom_site_fract_y
    _atom_site_fract_z
    _atom_site_occupancy
    Ni1      Ni       0.94392    0.78741    0.74172    1.000
    Ni2      Ni       0.05608    0.21259    0.74172    1.000
    Ni3      Ni       0.44392    0.71259    0.25828    1.000
    Ni4      Ni       0.55608    0.28741    0.25828    1.000
    H1       H        0.15540    0.69970    0.65010    1.000
    H2       H        0.09500    0.68860    0.83340    1.000
    H3       H        0.83810    0.61580    0.88610    1.000
    H4       H        0.64520    0.62500    0.77310    1.000
    H5       H        0.93900    0.62810    0.60640    1.000
    H6       H        0.52410    0.82810    0.76570    1.000
    H7       H        0.33830    0.91470    0.73260    1.000
    H8       H        0.81910    0.00740    0.65290    1.000
    H9       H        0.98790    0.91810    0.62910    1.000
    H10      H        0.84460    0.30030    0.65010    1.000
    H11      H        0.90500    0.31140    0.83340    1.000
    H12      H        0.16190    0.38420    0.88610    1.000
    H13      H        0.35480    0.37500    0.77310    1.000
    H14      H        0.06100    0.37190    0.60640    1.000
    H15      H        0.47590    0.17190    0.76570    1.000
    H16      H        0.66170    0.08530    0.73260    1.000
    H17      H        0.18090    0.99260    0.65290    1.000
    H18      H        0.01210    0.08190    0.62910    1.000
    H19      H        0.65540    0.80030    0.34990    1.000
    H20      H        0.59500    0.81140    0.16660    1.000
    H21      H        0.33810    0.88420    0.11390    1.000
    H22      H        0.14520    0.87500    0.22690    1.000
    H23      H        0.43900    0.87190    0.39360    1.000
    H24      H        0.02410    0.67190    0.23430    1.000
    H25      H        0.83830    0.58530    0.26740    1.000
    H26      H        0.31910    0.49260    0.34710    1.000
    H27      H        0.48790    0.58190    0.37090    1.000
    H28      H        0.34460    0.19970    0.34990    1.000
    H29      H        0.40500    0.18860    0.16660    1.000
    H30      H        0.66190    0.11580    0.11390    1.000
    H31      H        0.85480    0.12500    0.22690    1.000
    H32      H        0.56100    0.12810    0.39360    1.000
    H33      H        0.97590    0.32810    0.23430    1.000
    H34      H        0.16170    0.41470    0.26740    1.000
    H35      H        0.68090    0.50740    0.34710    1.000
    H36      H        0.51210    0.41810    0.37090    1.000
    C1       C        0.69590    0.69582    0.94200    1.000
    C2       C        0.76310    0.64561    0.81820    1.000
    C3       C        0.88700    0.66473    0.66560    1.000
    C4       C        0.76270    0.70098    0.53660    1.000
    C5       C        0.58800    0.86578    0.75560    1.000
    C6       C        0.47380    0.91691    0.75900    1.000
    C7       C        0.55720    0.97170    0.71560    1.000
    C8       C        0.75420    0.97070    0.67790    1.000
    C9       C        0.85910    0.91840    0.67530    1.000
    C10      C        0.30410    0.30418    0.94200    1.000
    C11      C        0.23690    0.35439    0.81820    1.000
    C12      C        0.11300    0.33527    0.66560    1.000
    C13      C        0.23730    0.29902    0.53660    1.000
    C14      C        0.41200    0.13422    0.75560    1.000
    C15      C        0.52620    0.08309    0.75900    1.000
    C16      C        0.44280    0.02830    0.71560    1.000
    C17      C        0.24580    0.02930    0.67790    1.000
    C18      C        0.14090    0.08160    0.67530    1.000
    C19      C        0.19590    0.80418    0.05800    1.000
    C20      C        0.26310    0.85439    0.18180    1.000
    C21      C        0.38700    0.83527    0.33440    1.000
    C22      C        0.26270    0.79902    0.46340    1.000
    C23      C        0.08800    0.63422    0.24440    1.000
    C24      C        0.97380    0.58309    0.24100    1.000
    C25      C        0.05720    0.52830    0.28440    1.000
    C26      C        0.25420    0.52930    0.32210    1.000
    C27      C        0.35910    0.58160    0.32470    1.000
    C28      C        0.80410    0.19582    0.05800    1.000
    C29      C        0.73690    0.14561    0.18180    1.000
    C30      C        0.61300    0.16473    0.33440    1.000
    C31      C        0.73730    0.20098    0.46340    1.000
    C32      C        0.91200    0.36578    0.24440    1.000
    C33      C        0.02620    0.41691    0.24100    1.000
    C34      C        0.94280    0.47170    0.28440    1.000
    C35      C        0.74580    0.47070    0.32210    1.000
    C36      C        0.64090    0.41840    0.32470    1.000
    N1       N        0.05270    0.70155    0.72680    1.000
    N2       N        0.77940    0.86588    0.73910    1.000
    N3       N        0.94730    0.29845    0.72680    1.000
    N4       N        0.22060    0.13412    0.73910    1.000
    N5       N        0.55270    0.79845    0.27320    1.000
    N6       N        0.27940    0.63412    0.26090    1.000
    N7       N        0.44730    0.20155    0.27320    1.000
    N8       N        0.72060    0.36588    0.26090    1.000
    O1       O        0.73630    0.74976    0.91720    1.000
    O2       O        0.60000    0.67495    0.06760    1.000
    O3       O        0.64860    0.67299    0.43840    1.000
    O4       O        0.78570    0.75705    0.53870    1.000
    O5       O        0.26370    0.25024    0.91720    1.000
    O6       O        0.40000    0.32505    0.06760    1.000
    O7       O        0.35140    0.32701    0.43840    1.000
    O8       O        0.21430    0.24295    0.53870    1.000
    O9       O        0.23630    0.75024    0.08280    1.000
    O10      O        0.10000    0.82505    0.93240    1.000
    O11      O        0.14860    0.82701    0.56160    1.000
    O12      O        0.28570    0.74295    0.46130    1.000
    O13      O        0.76370    0.24976    0.08280    1.000
    O14      O        0.90000    0.17495    0.93240    1.000
    O15      O        0.85140    0.17299    0.56160    1.000
    O16      O        0.71430    0.25705    0.46130    1.000
