# CIF file generated by openbabel 3.1.0, see https://openbabel.org
data_I
_chemical_name_common 'image0'
_cell_length_a 25.7465
_cell_length_b 25.7465
_cell_length_c 25.7465
_cell_angle_alpha 90
_cell_angle_beta 90
_cell_angle_gamma 90
_space_group_name_H-M_alt 'P 1'
_space_group_name_Hall 'P 1'
loop_
    _symmetry_equiv_pos_as_xyz
    x,y,z
loop_
    _atom_site_label
    _atom_site_type_symbol
    _atom_site_fract_x
    _atom_site_fract_y
    _atom_site_fract_z
    _atom_site_occupancy
    Zn1      Zn       0.29342    0.20658    0.20658    1.000
    Zn2      Zn       0.29342    0.70658    0.70658    1.000
    Zn3      Zn       0.70658    0.79342    0.20658    1.000
    Zn4      Zn       0.70658    0.29342    0.70658    1.000
    Zn5      Zn       0.20658    0.29342    0.20658    1.000
    Zn6      Zn       0.70658    0.20658    0.79342    1.000
    Zn7      Zn       0.70658    0.70658    0.29342    1.000
    Zn8      Zn       0.20658    0.20658    0.29342    1.000
    Zn9      Zn       0.29342    0.79342    0.79342    1.000
    Zn10     Zn       0.29342    0.29342    0.29342    1.000
    Zn11     Zn       0.20658    0.70658    0.79342    1.000
    Zn12     Zn       0.79342    0.70658    0.20658    1.000
    Zn13     Zn       0.79342    0.29342    0.79342    1.000
    Zn14     Zn       0.79342    0.20658    0.70658    1.000
    Zn15     Zn       0.20658    0.79342    0.70658    1.000
    Zn16     Zn       0.79342    0.79342    0.29342    1.000
    Zn17     Zn       0.20658    0.29342    0.79342    1.000
    Zn18     Zn       0.79342    0.70658    0.79342    1.000
    Zn19     Zn       0.79342    0.20658    0.29342    1.000
    Zn20     Zn       0.29342    0.20658    0.79342    1.000
    Zn21     Zn       0.20658    0.70658    0.20658    1.000
    Zn22     Zn       0.79342    0.29342    0.20658    1.000
    Zn23     Zn       0.29342    0.29342    0.70658    1.000
    Zn24     Zn       0.29342    0.70658    0.29342    1.000
    Zn25     Zn       0.70658    0.20658    0.20658    1.000
    Zn26     Zn       0.70658    0.70658    0.70658    1.000
    Zn27     Zn       0.70658    0.79342    0.79342    1.000
    Zn28     Zn       0.70658    0.29342    0.29342    1.000
    Zn29     Zn       0.20658    0.79342    0.29342    1.000
    Zn30     Zn       0.29342    0.79342    0.20658    1.000
    Zn31     Zn       0.20658    0.20658    0.70658    1.000
    Zn32     Zn       0.79342    0.79342    0.70658    1.000
    O1       O        0.28070    0.21930    0.13400    1.000
    C1       C        0.28100    0.21900    0.02660    1.000
    N1       N        0.31770    0.18230    0.04740    1.000
    O2       O        0.28070    0.71930    0.63400    1.000
    C2       C        0.28100    0.71900    0.52660    1.000
    N2       N        0.31770    0.68230    0.54740    1.000
    O3       O        0.71930    0.78070    0.13400    1.000
    C3       C        0.71900    0.78100    0.02660    1.000
    N3       N        0.68230    0.81770    0.04740    1.000
    O4       O        0.71930    0.28070    0.63400    1.000
    C4       C        0.71900    0.28100    0.52660    1.000
    N4       N        0.68230    0.31770    0.54740    1.000
    O5       O        0.21930    0.28070    0.13400    1.000
    C5       C        0.21900    0.28100    0.02660    1.000
    N5       N        0.18230    0.31770    0.04740    1.000
    O6       O        0.71930    0.21930    0.86600    1.000
    C6       C        0.71900    0.21900    0.97340    1.000
    N6       N        0.68230    0.18230    0.95260    1.000
    O7       O        0.71930    0.71930    0.36600    1.000
    C7       C        0.71900    0.71900    0.47340    1.000
    N7       N        0.68230    0.68230    0.45260    1.000
    O8       O        0.21930    0.21930    0.36600    1.000
    C8       C        0.21900    0.21900    0.47340    1.000
    N8       N        0.18230    0.18230    0.45260    1.000
    O9       O        0.28070    0.78070    0.86600    1.000
    C9       C        0.28100    0.78100    0.97340    1.000
    N9       N        0.31770    0.81770    0.95260    1.000
    O10      O        0.28070    0.28070    0.36600    1.000
    C10      C        0.28100    0.28100    0.47340    1.000
    N10      N        0.31770    0.31770    0.45260    1.000
    O11      O        0.13400    0.28070    0.21930    1.000
    C11      C        0.02660    0.28100    0.21900    1.000
    N11      N        0.04740    0.31770    0.18230    1.000
    O12      O        0.63400    0.28070    0.71930    1.000
    C12      C        0.52660    0.28100    0.71900    1.000
    N12      N        0.54740    0.31770    0.68230    1.000
    O13      O        0.13400    0.71930    0.78070    1.000
    C13      C        0.02660    0.71900    0.78100    1.000
    N13      N        0.04740    0.68230    0.81770    1.000
    O14      O        0.13400    0.21930    0.28070    1.000
    C14      C        0.02660    0.21900    0.28100    1.000
    N14      N        0.04740    0.18230    0.31770    1.000
    O15      O        0.63400    0.71930    0.28070    1.000
    C15      C        0.52660    0.71900    0.28100    1.000
    N15      N        0.54740    0.68230    0.31770    1.000
    O16      O        0.86600    0.71930    0.21930    1.000
    C16      C        0.97340    0.71900    0.21900    1.000
    N16      N        0.95260    0.68230    0.18230    1.000
    O17      O        0.36600    0.71930    0.71930    1.000
    C17      C        0.47340    0.71900    0.71900    1.000
    N17      N        0.45260    0.68230    0.68230    1.000
    O18      O        0.36600    0.21930    0.21930    1.000
    C18      C        0.47340    0.21900    0.21900    1.000
    N18      N        0.45260    0.18230    0.18230    1.000
    O19      O        0.86600    0.28070    0.78070    1.000
    C19      C        0.97340    0.28100    0.78100    1.000
    N19      N        0.95260    0.31770    0.81770    1.000
    O20      O        0.36600    0.28070    0.28070    1.000
    C20      C        0.47340    0.28100    0.28100    1.000
    N20      N        0.45260    0.31770    0.31770    1.000
    O21      O        0.21930    0.13400    0.28070    1.000
    C21      C        0.21900    0.02660    0.28100    1.000
    N21      N        0.18230    0.04740    0.31770    1.000
    O22      O        0.21930    0.63400    0.78070    1.000
    C22      C        0.21900    0.52660    0.78100    1.000
    N22      N        0.18230    0.54740    0.81770    1.000
    O23      O        0.78070    0.13400    0.71930    1.000
    C23      C        0.78100    0.02660    0.71900    1.000
    N23      N        0.81770    0.04740    0.68230    1.000
    O24      O        0.78070    0.63400    0.21930    1.000
    C24      C        0.78100    0.52660    0.21900    1.000
    N24      N        0.81770    0.54740    0.18230    1.000
    O25      O        0.28070    0.13400    0.21930    1.000
    C25      C        0.28100    0.02660    0.21900    1.000
    N25      N        0.31770    0.04740    0.18230    1.000
    O26      O        0.21930    0.86600    0.71930    1.000
    C26      C        0.21900    0.97340    0.71900    1.000
    N26      N        0.18230    0.95260    0.68230    1.000
    O27      O        0.21930    0.36600    0.21930    1.000
    C27      C        0.21900    0.47340    0.21900    1.000
    N27      N        0.18230    0.45260    0.18230    1.000
    O28      O        0.78070    0.86600    0.28070    1.000
    C28      C        0.78100    0.97340    0.28100    1.000
    N28      N        0.81770    0.95260    0.31770    1.000
    O29      O        0.78070    0.36600    0.78070    1.000
    C29      C        0.78100    0.47340    0.78100    1.000
    N29      N        0.81770    0.45260    0.81770    1.000
    O30      O        0.28070    0.36600    0.28070    1.000
    C30      C        0.28100    0.47340    0.28100    1.000
    N30      N        0.31770    0.45260    0.31770    1.000
    O31      O        0.21930    0.28070    0.86600    1.000
    C31      C        0.21900    0.28100    0.97340    1.000
    N31      N        0.18230    0.31770    0.95260    1.000
    O32      O        0.21930    0.78070    0.36600    1.000
    C32      C        0.21900    0.78100    0.47340    1.000
    N32      N        0.18230    0.81770    0.45260    1.000
    O33      O        0.78070    0.71930    0.86600    1.000
    C33      C        0.78100    0.71900    0.97340    1.000
    N33      N        0.81770    0.68230    0.95260    1.000
    O34      O        0.78070    0.21930    0.36600    1.000
    C34      C        0.78100    0.21900    0.47340    1.000
    N34      N        0.81770    0.18230    0.45260    1.000
    O35      O        0.28070    0.21930    0.86600    1.000
    C35      C        0.28100    0.21900    0.97340    1.000
    N35      N        0.31770    0.18230    0.95260    1.000
    O36      O        0.21930    0.71930    0.13400    1.000
    C36      C        0.21900    0.71900    0.02660    1.000
    N36      N        0.18230    0.68230    0.04740    1.000
    O37      O        0.21930    0.21930    0.63400    1.000
    C37      C        0.21900    0.21900    0.52660    1.000
    N37      N        0.18230    0.18230    0.54740    1.000
    O38      O        0.78070    0.28070    0.13400    1.000
    C38      C        0.78100    0.28100    0.02660    1.000
    N38      N        0.81770    0.31770    0.04740    1.000
    O39      O        0.78070    0.78070    0.63400    1.000
    C39      C        0.78100    0.78100    0.52660    1.000
    N39      N        0.81770    0.81770    0.54740    1.000
    O40      O        0.28070    0.28070    0.63400    1.000
    C40      C        0.28100    0.28100    0.52660    1.000
    N40      N        0.31770    0.31770    0.54740    1.000
    O41      O        0.28070    0.13400    0.78070    1.000
    C41      C        0.28100    0.02660    0.78100    1.000
    N41      N        0.31770    0.04740    0.81770    1.000
    O42      O        0.28070    0.63400    0.28070    1.000
    C42      C        0.28100    0.52660    0.28100    1.000
    N42      N        0.31770    0.54740    0.31770    1.000
    O43      O        0.71930    0.13400    0.21930    1.000
    C43      C        0.71900    0.02660    0.21900    1.000
    N43      N        0.68230    0.04740    0.18230    1.000
    O44      O        0.71930    0.63400    0.71930    1.000
    C44      C        0.71900    0.52660    0.71900    1.000
    N44      N        0.68230    0.54740    0.68230    1.000
    O45      O        0.21930    0.63400    0.21930    1.000
    C45      C        0.21900    0.52660    0.21900    1.000
    N45      N        0.18230    0.54740    0.18230    1.000
    O46      O        0.71930    0.86600    0.78070    1.000
    C46      C        0.71900    0.97340    0.78100    1.000
    N46      N        0.68230    0.95260    0.81770    1.000
    O47      O        0.71930    0.36600    0.28070    1.000
    C47      C        0.71900    0.47340    0.28100    1.000
    N47      N        0.68230    0.45260    0.31770    1.000
    O48      O        0.21930    0.86600    0.28070    1.000
    C48      C        0.21900    0.97340    0.28100    1.000
    N48      N        0.18230    0.95260    0.31770    1.000
    O49      O        0.28070    0.86600    0.21930    1.000
    C49      C        0.28100    0.97340    0.21900    1.000
    N49      N        0.31770    0.95260    0.18230    1.000
    O50      O        0.28070    0.36600    0.71930    1.000
    C50      C        0.28100    0.47340    0.71900    1.000
    N50      N        0.31770    0.45260    0.68230    1.000
    O51      O        0.13400    0.21930    0.71930    1.000
    C51      C        0.02660    0.21900    0.71900    1.000
    N51      N        0.04740    0.18230    0.68230    1.000
    O52      O        0.63400    0.21930    0.21930    1.000
    C52      C        0.52660    0.21900    0.21900    1.000
    N52      N        0.54740    0.18230    0.18230    1.000
    O53      O        0.13400    0.78070    0.28070    1.000
    C53      C        0.02660    0.78100    0.28100    1.000
    N53      N        0.04740    0.81770    0.31770    1.000
    O54      O        0.63400    0.78070    0.78070    1.000
    C54      C        0.52660    0.78100    0.78100    1.000
    N54      N        0.54740    0.81770    0.81770    1.000
    O55      O        0.63400    0.28070    0.28070    1.000
    C55      C        0.52660    0.28100    0.28100    1.000
    N55      N        0.54740    0.31770    0.31770    1.000
    O56      O        0.86600    0.21930    0.28070    1.000
    C56      C        0.97340    0.21900    0.28100    1.000
    N56      N        0.95260    0.18230    0.31770    1.000
    O57      O        0.36600    0.21930    0.78070    1.000
    C57      C        0.47340    0.21900    0.78100    1.000
    N57      N        0.45260    0.18230    0.81770    1.000
    O58      O        0.86600    0.78070    0.71930    1.000
    C58      C        0.97340    0.78100    0.71900    1.000
    N58      N        0.95260    0.81770    0.68230    1.000
    O59      O        0.86600    0.28070    0.21930    1.000
    C59      C        0.97340    0.28100    0.21900    1.000
    N59      N        0.95260    0.31770    0.18230    1.000
    O60      O        0.36600    0.78070    0.21930    1.000
    C60      C        0.47340    0.78100    0.21900    1.000
    N60      N        0.45260    0.81770    0.18230    1.000
    O61      O        0.71930    0.78070    0.86600    1.000
    C61      C        0.71900    0.78100    0.97340    1.000
    N61      N        0.68230    0.81770    0.95260    1.000
    O62      O        0.71930    0.28070    0.36600    1.000
    C62      C        0.71900    0.28100    0.47340    1.000
    N62      N        0.68230    0.31770    0.45260    1.000
    O63      O        0.28070    0.71930    0.36600    1.000
    C63      C        0.28100    0.71900    0.47340    1.000
    N63      N        0.31770    0.68230    0.45260    1.000
    O64      O        0.28070    0.78070    0.13400    1.000
    C64      C        0.28100    0.78100    0.02660    1.000
    N64      N        0.31770    0.81770    0.04740    1.000
    O65      O        0.71930    0.21930    0.13400    1.000
    C65      C        0.71900    0.21900    0.02660    1.000
    N65      N        0.68230    0.18230    0.04740    1.000
    O66      O        0.71930    0.71930    0.63400    1.000
    C66      C        0.71900    0.71900    0.52660    1.000
    N66      N        0.68230    0.68230    0.54740    1.000
    O67      O        0.86600    0.71930    0.78070    1.000
    C67      C        0.97340    0.71900    0.78100    1.000
    N67      N        0.95260    0.68230    0.81770    1.000
    O68      O        0.36600    0.71930    0.28070    1.000
    C68      C        0.47340    0.71900    0.28100    1.000
    N68      N        0.45260    0.68230    0.31770    1.000
    O69      O        0.36600    0.28070    0.71930    1.000
    C69      C        0.47340    0.28100    0.71900    1.000
    N69      N        0.45260    0.31770    0.68230    1.000
    O70      O        0.13400    0.28070    0.78070    1.000
    C70      C        0.02660    0.28100    0.78100    1.000
    N70      N        0.04740    0.31770    0.81770    1.000
    O71      O        0.13400    0.71930    0.21930    1.000
    C71      C        0.02660    0.71900    0.21900    1.000
    N71      N        0.04740    0.68230    0.18230    1.000
    O72      O        0.63400    0.71930    0.71930    1.000
    C72      C        0.52660    0.71900    0.71900    1.000
    N72      N        0.54740    0.68230    0.68230    1.000
    O73      O        0.78070    0.86600    0.71930    1.000
    C73      C        0.78100    0.97340    0.71900    1.000
    N73      N        0.81770    0.95260    0.68230    1.000
    O74      O        0.78070    0.36600    0.21930    1.000
    C74      C        0.78100    0.47340    0.21900    1.000
    N74      N        0.81770    0.45260    0.18230    1.000
    O75      O        0.21930    0.36600    0.78070    1.000
    C75      C        0.21900    0.47340    0.78100    1.000
    N75      N        0.18230    0.45260    0.81770    1.000
    O76      O        0.78070    0.13400    0.28070    1.000
    C76      C        0.78100    0.02660    0.28100    1.000
    N76      N        0.81770    0.04740    0.31770    1.000
    O77      O        0.78070    0.63400    0.78070    1.000
    C77      C        0.78100    0.52660    0.78100    1.000
    N77      N        0.81770    0.54740    0.81770    1.000
    O78      O        0.21930    0.13400    0.71930    1.000
    C78      C        0.21900    0.02660    0.71900    1.000
    N78      N        0.18230    0.04740    0.68230    1.000
    O79      O        0.78070    0.71930    0.13400    1.000
    C79      C        0.78100    0.71900    0.02660    1.000
    N79      N        0.81770    0.68230    0.04740    1.000
    O80      O        0.78070    0.21930    0.63400    1.000
    C80      C        0.78100    0.21900    0.52660    1.000
    N80      N        0.81770    0.18230    0.54740    1.000
    O81      O        0.21930    0.78070    0.63400    1.000
    C81      C        0.21900    0.78100    0.52660    1.000
    N81      N        0.18230    0.81770    0.54740    1.000
    O82      O        0.78070    0.28070    0.86600    1.000
    C82      C        0.78100    0.28100    0.97340    1.000
    N82      N        0.81770    0.31770    0.95260    1.000
    O83      O        0.78070    0.78070    0.36600    1.000
    C83      C        0.78100    0.78100    0.47340    1.000
    N83      N        0.81770    0.81770    0.45260    1.000
    O84      O        0.21930    0.71930    0.86600    1.000
    C84      C        0.21900    0.71900    0.97340    1.000
    N84      N        0.18230    0.68230    0.95260    1.000
    O85      O        0.71930    0.86600    0.21930    1.000
    C85      C        0.71900    0.97340    0.21900    1.000
    N85      N        0.68230    0.95260    0.18230    1.000
    O86      O        0.71930    0.36600    0.71930    1.000
    C86      C        0.71900    0.47340    0.71900    1.000
    N86      N        0.68230    0.45260    0.68230    1.000
    O87      O        0.28070    0.86600    0.78070    1.000
    C87      C        0.28100    0.97340    0.78100    1.000
    N87      N        0.31770    0.95260    0.81770    1.000
    O88      O        0.28070    0.63400    0.71930    1.000
    C88      C        0.28100    0.52660    0.71900    1.000
    N88      N        0.31770    0.54740    0.68230    1.000
    O89      O        0.71930    0.13400    0.78070    1.000
    C89      C        0.71900    0.02660    0.78100    1.000
    N89      N        0.68230    0.04740    0.81770    1.000
    O90      O        0.71930    0.63400    0.28070    1.000
    C90      C        0.71900    0.52660    0.28100    1.000
    N90      N        0.68230    0.54740    0.31770    1.000
    O91      O        0.86600    0.78070    0.28070    1.000
    C91      C        0.97340    0.78100    0.28100    1.000
    N91      N        0.95260    0.81770    0.31770    1.000
    O92      O        0.36600    0.78070    0.78070    1.000
    C92      C        0.47340    0.78100    0.78100    1.000
    N92      N        0.45260    0.81770    0.81770    1.000
    O93      O        0.86600    0.21930    0.71930    1.000
    C93      C        0.97340    0.21900    0.71900    1.000
    N93      N        0.95260    0.18230    0.68230    1.000
    O94      O        0.13400    0.78070    0.71930    1.000
    C94      C        0.02660    0.78100    0.71900    1.000
    N94      N        0.04740    0.81770    0.68230    1.000
    O95      O        0.63400    0.78070    0.21930    1.000
    C95      C        0.52660    0.78100    0.21900    1.000
    N95      N        0.54740    0.81770    0.18230    1.000
    O96      O        0.63400    0.21930    0.78070    1.000
    C96      C        0.52660    0.21900    0.78100    1.000
    N96      N        0.54740    0.18230    0.81770    1.000
    O97      O        0.25000    0.25000    0.25000    1.000
    O98      O        0.75000    0.75000    0.25000    1.000
    O99      O        0.75000    0.25000    0.75000    1.000
    O100     O        0.25000    0.75000    0.75000    1.000
    O101     O        0.25000    0.25000    0.75000    1.000
    O102     O        0.75000    0.75000    0.75000    1.000
    O103     O        0.75000    0.25000    0.25000    1.000
    O104     O        0.25000    0.75000    0.25000    1.000
    C97      C        0.25000    0.25000    0.11050    1.000
    C98      C        0.25000    0.25000    0.05570    1.000
    C99      C        0.25000    0.75000    0.61050    1.000
    C100     C        0.25000    0.75000    0.55570    1.000
    C101     C        0.75000    0.75000    0.11050    1.000
    C102     C        0.75000    0.75000    0.05570    1.000
    C103     C        0.75000    0.25000    0.61050    1.000
    C104     C        0.75000    0.25000    0.55570    1.000
    C105     C        0.75000    0.25000    0.88950    1.000
    C106     C        0.75000    0.25000    0.94430    1.000
    C107     C        0.75000    0.75000    0.38950    1.000
    C108     C        0.75000    0.75000    0.44430    1.000
    C109     C        0.25000    0.25000    0.38950    1.000
    C110     C        0.25000    0.25000    0.44430    1.000
    C111     C        0.25000    0.75000    0.88950    1.000
    C112     C        0.25000    0.75000    0.94430    1.000
    C113     C        0.11050    0.25000    0.25000    1.000
    C114     C        0.05570    0.25000    0.25000    1.000
    C115     C        0.61050    0.25000    0.75000    1.000
    C116     C        0.55570    0.25000    0.75000    1.000
    C117     C        0.11050    0.75000    0.75000    1.000
    C118     C        0.05570    0.75000    0.75000    1.000
    C119     C        0.61050    0.75000    0.25000    1.000
    C120     C        0.55570    0.75000    0.25000    1.000
    C121     C        0.88950    0.75000    0.25000    1.000
    C122     C        0.94430    0.75000    0.25000    1.000
    C123     C        0.38950    0.75000    0.75000    1.000
    C124     C        0.44430    0.75000    0.75000    1.000
    C125     C        0.38950    0.25000    0.25000    1.000
    C126     C        0.44430    0.25000    0.25000    1.000
    C127     C        0.88950    0.25000    0.75000    1.000
    C128     C        0.94430    0.25000    0.75000    1.000
    C129     C        0.25000    0.11050    0.25000    1.000
    C130     C        0.25000    0.05570    0.25000    1.000
    C131     C        0.25000    0.61050    0.75000    1.000
    C132     C        0.25000    0.55570    0.75000    1.000
    C133     C        0.75000    0.11050    0.75000    1.000
    C134     C        0.75000    0.05570    0.75000    1.000
    C135     C        0.75000    0.61050    0.25000    1.000
    C136     C        0.75000    0.55570    0.25000    1.000
    C137     C        0.25000    0.88950    0.75000    1.000
    C138     C        0.25000    0.94430    0.75000    1.000
    C139     C        0.25000    0.38950    0.25000    1.000
    C140     C        0.25000    0.44430    0.25000    1.000
    C141     C        0.75000    0.88950    0.25000    1.000
    C142     C        0.75000    0.94430    0.25000    1.000
    C143     C        0.75000    0.38950    0.75000    1.000
    C144     C        0.75000    0.44430    0.75000    1.000
    C145     C        0.25000    0.25000    0.88950    1.000
    C146     C        0.25000    0.25000    0.94430    1.000
    C147     C        0.25000    0.75000    0.38950    1.000
    C148     C        0.25000    0.75000    0.44430    1.000
    C149     C        0.75000    0.75000    0.88950    1.000
    C150     C        0.75000    0.75000    0.94430    1.000
    C151     C        0.75000    0.25000    0.38950    1.000
    C152     C        0.75000    0.25000    0.44430    1.000
    C153     C        0.25000    0.75000    0.11050    1.000
    C154     C        0.25000    0.75000    0.05570    1.000
    C155     C        0.25000    0.25000    0.61050    1.000
    C156     C        0.25000    0.25000    0.55570    1.000
    C157     C        0.75000    0.25000    0.11050    1.000
    C158     C        0.75000    0.25000    0.05570    1.000
    C159     C        0.75000    0.75000    0.61050    1.000
    C160     C        0.75000    0.75000    0.55570    1.000
    C161     C        0.25000    0.11050    0.75000    1.000
    C162     C        0.25000    0.05570    0.75000    1.000
    C163     C        0.25000    0.61050    0.25000    1.000
    C164     C        0.25000    0.55570    0.25000    1.000
    C165     C        0.75000    0.11050    0.25000    1.000
    C166     C        0.75000    0.05570    0.25000    1.000
    C167     C        0.75000    0.61050    0.75000    1.000
    C168     C        0.75000    0.55570    0.75000    1.000
    C169     C        0.75000    0.88950    0.75000    1.000
    C170     C        0.75000    0.94430    0.75000    1.000
    C171     C        0.75000    0.38950    0.25000    1.000
    C172     C        0.75000    0.44430    0.25000    1.000
    C173     C        0.25000    0.88950    0.25000    1.000
    C174     C        0.25000    0.94430    0.25000    1.000
    C175     C        0.25000    0.38950    0.75000    1.000
    C176     C        0.25000    0.44430    0.75000    1.000
    C177     C        0.11050    0.25000    0.75000    1.000
    C178     C        0.05570    0.25000    0.75000    1.000
    C179     C        0.61050    0.25000    0.25000    1.000
    C180     C        0.55570    0.25000    0.25000    1.000
    C181     C        0.11050    0.75000    0.25000    1.000
    C182     C        0.05570    0.75000    0.25000    1.000
    C183     C        0.61050    0.75000    0.75000    1.000
    C184     C        0.55570    0.75000    0.75000    1.000
    C185     C        0.88950    0.25000    0.25000    1.000
    C186     C        0.94430    0.25000    0.25000    1.000
    C187     C        0.38950    0.25000    0.75000    1.000
    C188     C        0.44430    0.25000    0.75000    1.000
    C189     C        0.88950    0.75000    0.75000    1.000
    C190     C        0.94430    0.75000    0.75000    1.000
    C191     C        0.38950    0.75000    0.25000    1.000
    C192     C        0.44430    0.75000    0.25000    1.000
