# CIF file generated by openbabel 3.1.0, see https://openbabel.org
data_I
_chemical_name_common 'image0'
_cell_length_a 10.0218
_cell_length_b 10.7145
_cell_length_c 10.987
_cell_angle_alpha 80.478
_cell_angle_beta 72.442
_cell_angle_gamma 74.522
_space_group_name_H-M_alt 'P 1'
_space_group_name_Hall 'P 1'
loop_
    _symmetry_equiv_pos_as_xyz
    x,y,z
loop_
    _atom_site_label
    _atom_site_type_symbol
    _atom_site_fract_x
    _atom_site_fract_y
    _atom_site_fract_z
    _atom_site_occupancy
    Nd1      Nd       0.17619    0.19537    0.03486    1.000
    Zn1      Zn       0.29277    0.36785    0.61537    1.000
    N1       N        0.47730    0.20540    0.56840    1.000
    N2       N        0.13210    0.30220    0.57500    1.000
    C1       C        0.55980    0.17560    0.45090    1.000
    H1       H        0.53400    0.22500    0.38000    1.000
    C2       C        0.68280    0.07640    0.43320    1.000
    H2       H        0.73900    0.05600    0.35200    1.000
    C3       C        0.72280    0.00770    0.54030    1.000
    H3       H        0.80400    0.94600    0.53100    1.000
    C4       C        0.63850    0.03750    0.66260    1.000
    C5       C        0.51430    0.13650    0.67170    1.000
    C6       C        0.68740    0.96210    0.77650    1.000
    C7       C        0.40690    0.16890    0.79790    1.000
    C8       C        0.11010    0.35230    0.45960    1.000
    C9       C        0.99250    0.33810    0.42500    1.000
    C10      C        0.89550    0.27380    0.51340    1.000
    H4       H        0.81000    0.27000    0.49300    1.000
    C11      C        0.91900    0.22290    0.63110    1.000
    H5       H        0.85400    0.17900    0.69400    1.000
    C12      C        0.03880    0.23860    0.65810    1.000
    H6       H        0.06200    0.20300    0.73100    1.000
    C13      C        0.22060    0.42590    0.37530    1.000
    C14      C        0.96800    0.38540    0.29450    1.000
    C15      C        0.05980    0.97780    0.93920    1.000
    O1       O        0.75540    0.01060    0.82800    1.000
    O2       O        0.66740    0.84890    0.80960    1.000
    O3       O        0.42620    0.10510    0.89870    1.000
    O4       O        0.29400    0.25920    0.79510    1.000
    O5       O        0.31240    0.44080    0.42660    1.000
    O6       O        0.21310    0.46830    0.26520    1.000
    O7       O        0.02500    0.30550    0.21180    1.000
    O8       O        0.88790    0.49380    0.27670    1.000
    O9       O        0.16330    0.03350    0.90440    1.000
    O10      O        0.04450    0.89180    0.88450    1.000
    Nd2      Nd       0.82381    0.80463    0.96514    1.000
    Zn2      Zn       0.70723    0.63215    0.38463    1.000
    N3       N        0.52270    0.79460    0.43160    1.000
    N4       N        0.86790    0.69780    0.42500    1.000
    C16      C        0.44020    0.82440    0.54910    1.000
    H7       H        0.46600    0.77500    0.62000    1.000
    C17      C        0.31720    0.92360    0.56680    1.000
    H8       H        0.26100    0.94400    0.64800    1.000
    C18      C        0.27720    0.99230    0.45970    1.000
    H9       H        0.19600    0.05400    0.46900    1.000
    C19      C        0.36150    0.96250    0.33740    1.000
    C20      C        0.48570    0.86350    0.32830    1.000
    C21      C        0.31260    0.03790    0.22350    1.000
    C22      C        0.59310    0.83110    0.20210    1.000
    C23      C        0.88990    0.64770    0.54040    1.000
    C24      C        0.00750    0.66190    0.57500    1.000
    C25      C        0.10450    0.72620    0.48660    1.000
    H10      H        0.19000    0.73000    0.50700    1.000
    C26      C        0.08100    0.77710    0.36890    1.000
    H11      H        0.14600    0.82100    0.30600    1.000
    C27      C        0.96120    0.76140    0.34190    1.000
    H12      H        0.93800    0.79700    0.26900    1.000
    C28      C        0.77940    0.57410    0.62470    1.000
    C29      C        0.03200    0.61460    0.70550    1.000
    C30      C        0.94020    0.02220    0.06080    1.000
    O11      O        0.24460    0.98940    0.17200    1.000
    O12      O        0.33260    0.15110    0.19040    1.000
    O13      O        0.57380    0.89490    0.10130    1.000
    O14      O        0.70600    0.74080    0.20490    1.000
    O15      O        0.68760    0.55920    0.57340    1.000
    O16      O        0.78690    0.53170    0.73480    1.000
    O17      O        0.97500    0.69450    0.78820    1.000
    O18      O        0.11210    0.50620    0.72330    1.000
    O19      O        0.83670    0.96650    0.09560    1.000
    O20      O        0.95550    0.10820    0.11550    1.000
