# CIF file generated by openbabel 3.1.0, see https://openbabel.org
data_I
_chemical_name_common 'image0'
_cell_length_a 15.905
_cell_length_b 15.905
_cell_length_c 21.548
_cell_angle_alpha 90
_cell_angle_beta 90
_cell_angle_gamma 90
_space_group_name_H-M_alt 'P 1'
_space_group_name_Hall 'P 1'
loop_
    _symmetry_equiv_pos_as_xyz
    x,y,z
loop_
    _atom_site_label
    _atom_site_type_symbol
    _atom_site_fract_x
    _atom_site_fract_y
    _atom_site_fract_z
    _atom_site_occupancy
    C1       C        0.03700    0.75640    0.53600    1.000
    H1       H        0.00500    0.76070    0.57310    1.000
    C2       C        0.09430    0.69000    0.53090    1.000
    H2       H        0.10070    0.65080    0.56380    1.000
    C3       C        0.14220    0.68190    0.47660    1.000
    C4       C        0.12650    0.74060    0.43050    1.000
    H3       H        0.15530    0.73650    0.39190    1.000
    C5       C        0.06930    0.80480    0.43980    1.000
    H4       H        0.06120    0.84480    0.40760    1.000
    C6       C        0.20780    0.61680    0.47080    1.000
    C7       C        0.20660    0.54390    0.50670    1.000
    H5       H        0.16160    0.53510    0.53490    1.000
    C8       C        0.26930    0.48440    0.50200    1.000
    H6       H        0.26720    0.43530    0.52710    1.000
    C9       C        0.33450    0.49560    0.46160    1.000
    H7       H        0.37710    0.45400    0.45820    1.000
    C10      C        0.33850    0.56790    0.42540    1.000
    C11      C        0.27500    0.62680    0.43040    1.000
    H8       H        0.27740    0.67590    0.40530    1.000
    C12      C        0.40830    0.57660    0.38170    1.000
    C13      C        0.12630    0.99510    0.56980    1.000
    C14      C        0.18840    0.93980    0.53980    1.000
    C15      C        0.21870    0.95640    0.47950    1.000
    H9       H        0.20000    0.00430    0.45710    1.000
    C16      C        0.27670    0.90080    0.45360    1.000
    H10      H        0.29590    0.90980    0.41240    1.000
    C17      C        0.30670    0.83240    0.48700    1.000
    H11      H        0.34720    0.79600    0.46880    1.000
    C18      C        0.27810    0.81670    0.54680    1.000
    C19      C        0.21800    0.87110    0.57230    1.000
    H12      H        0.19720    0.86040    0.61290    1.000
    C20      C        0.30800    0.74420    0.58350    1.000
    C21      C        0.26530    0.71680    0.63650    1.000
    H13      H        0.21190    0.74000    0.64650    1.000
    C22      C        0.30040    0.65660    0.67400    1.000
    H14      H        0.27030    0.63990    0.71000    1.000
    C23      C        0.41280    0.64050    0.61020    1.000
    H15      H        0.46330    0.61200    0.59970    1.000
    C24      C        0.38310    0.70130    0.56980    1.000
    H16      H        0.41330    0.71390    0.53290    1.000
    N1       N        0.02460    0.81330    0.49240    1.000
    N2       N        0.44600    0.51220    0.35530    1.000
    N3       N        0.04460    0.99310    0.56640    1.000
    N4       N        0.44360    0.64900    0.36030    1.000
    N5       N        0.42500    0.73110    0.38100    1.000
    H17      H        0.47350    0.75860    0.39030    1.000
    H18      H        0.39740    0.75920    0.35020    1.000
    N6       N        0.88000    0.87460    0.41270    1.000
    C25      C        0.96300    0.24360    0.03600    1.000
    H19      H        0.99500    0.23930    0.07310    1.000
    C26      C        0.90570    0.31000    0.03090    1.000
    H20      H        0.89930    0.34920    0.06380    1.000
    C27      C        0.85780    0.31810    0.97660    1.000
    C28      C        0.87350    0.25940    0.93050    1.000
    H21      H        0.84470    0.26350    0.89190    1.000
    C29      C        0.93070    0.19520    0.93980    1.000
    H22      H        0.93880    0.15520    0.90760    1.000
    C30      C        0.79220    0.38320    0.97080    1.000
    C31      C        0.79340    0.45610    0.00670    1.000
    H23      H        0.83840    0.46490    0.03490    1.000
    C32      C        0.73070    0.51560    0.00200    1.000
    H24      H        0.73280    0.56470    0.02710    1.000
    C33      C        0.66550    0.50440    0.96160    1.000
    H25      H        0.62290    0.54600    0.95820    1.000
    C34      C        0.66150    0.43210    0.92540    1.000
    C35      C        0.72500    0.37320    0.93040    1.000
    H26      H        0.72260    0.32410    0.90530    1.000
    C36      C        0.59170    0.42340    0.88170    1.000
    C37      C        0.87370    0.00490    0.06980    1.000
    C38      C        0.81160    0.06020    0.03980    1.000
    C39      C        0.78130    0.04360    0.97950    1.000
    H27      H        0.80000    0.99570    0.95710    1.000
    C40      C        0.72330    0.09920    0.95360    1.000
    H28      H        0.70410    0.09020    0.91240    1.000
    C41      C        0.69330    0.16760    0.98700    1.000
    H29      H        0.65280    0.20400    0.96880    1.000
    C42      C        0.72190    0.18330    0.04680    1.000
    C43      C        0.78200    0.12890    0.07230    1.000
    H30      H        0.80280    0.13960    0.11290    1.000
    C44      C        0.69200    0.25580    0.08350    1.000
    C45      C        0.73470    0.28320    0.13650    1.000
    H31      H        0.78810    0.26000    0.14650    1.000
    C46      C        0.69960    0.34340    0.17400    1.000
    H32      H        0.72970    0.36010    0.21000    1.000
    C47      C        0.58720    0.35950    0.11020    1.000
    H33      H        0.53670    0.38800    0.09970    1.000
    C48      C        0.61690    0.29870    0.06980    1.000
    H34      H        0.58670    0.28610    0.03290    1.000
    N7       N        0.97540    0.18670    0.99240    1.000
    N8       N        0.55400    0.48780    0.85530    1.000
    N9       N        0.95540    0.00690    0.06640    1.000
    N10      N        0.55640    0.35100    0.86030    1.000
    N11      N        0.57500    0.26890    0.88100    1.000
    H35      H        0.52650    0.24140    0.89030    1.000
    H36      H        0.60260    0.24080    0.85020    1.000
    N12      N        0.12000    0.12540    0.91270    1.000
    C49      C        0.74360    0.53700    0.28600    1.000
    H37      H        0.73930    0.50500    0.32310    1.000
    C50      C        0.81000    0.59430    0.28090    1.000
    H38      H        0.84920    0.60070    0.31380    1.000
    C51      C        0.81810    0.64220    0.22660    1.000
    C52      C        0.75940    0.62650    0.18050    1.000
    H39      H        0.76350    0.65530    0.14190    1.000
    C53      C        0.69520    0.56930    0.18980    1.000
    H40      H        0.65520    0.56120    0.15760    1.000
    C54      C        0.88320    0.70780    0.22080    1.000
    C55      C        0.95610    0.70660    0.25670    1.000
    H41      H        0.96490    0.66160    0.28490    1.000
    C56      C        0.01560    0.76930    0.25200    1.000
    H42      H        0.06470    0.76720    0.27710    1.000
    C57      C        0.00440    0.83450    0.21160    1.000
    H43      H        0.04600    0.87710    0.20820    1.000
    C58      C        0.93210    0.83850    0.17540    1.000
    C59      C        0.87320    0.77500    0.18040    1.000
    H44      H        0.82410    0.77740    0.15530    1.000
    C60      C        0.92340    0.90830    0.13170    1.000
    C61      C        0.50490    0.62630    0.31980    1.000
    C62      C        0.56020    0.68840    0.28980    1.000
    C63      C        0.54360    0.71870    0.22950    1.000
    H45      H        0.49570    0.70000    0.20710    1.000
    C64      C        0.59920    0.77670    0.20360    1.000
    H46      H        0.59020    0.79590    0.16240    1.000
    C65      C        0.66760    0.80670    0.23700    1.000
    H47      H        0.70400    0.84720    0.21880    1.000
    C66      C        0.68330    0.77810    0.29680    1.000
    C67      C        0.62890    0.71800    0.32230    1.000
    H48      H        0.63960    0.69720    0.36290    1.000
    C68      C        0.75580    0.80800    0.33350    1.000
    C69      C        0.78320    0.76530    0.38650    1.000
    H49      H        0.76000    0.71190    0.39650    1.000
    C70      C        0.84340    0.80040    0.42400    1.000
    H50      H        0.86010    0.77030    0.46000    1.000
    C71      C        0.85950    0.91280    0.36020    1.000
    H51      H        0.88800    0.96330    0.34970    1.000
    C72      C        0.79870    0.88310    0.31980    1.000
    H52      H        0.78610    0.91330    0.28290    1.000
    N13      N        0.68670    0.52460    0.24240    1.000
    N14      N        0.98780    0.94600    0.10530    1.000
    N15      N        0.50690    0.54460    0.31640    1.000
    N16      N        0.85100    0.94360    0.11030    1.000
    N17      N        0.76890    0.92500    0.13100    1.000
    H53      H        0.74140    0.97350    0.14030    1.000
    H54      H        0.74080    0.89740    0.10020    1.000
    N18      N        0.62540    0.38000    0.16270    1.000
    C73      C        0.25640    0.46300    0.78600    1.000
    H55      H        0.26070    0.49500    0.82310    1.000
    C74      C        0.19000    0.40570    0.78090    1.000
    H56      H        0.15080    0.39930    0.81380    1.000
    C75      C        0.18190    0.35780    0.72660    1.000
    C76      C        0.24060    0.37350    0.68050    1.000
    H57      H        0.23650    0.34470    0.64190    1.000
    C77      C        0.30480    0.43070    0.68980    1.000
    H58      H        0.34480    0.43880    0.65760    1.000
    C78      C        0.11680    0.29220    0.72080    1.000
    C79      C        0.04390    0.29340    0.75670    1.000
    H59      H        0.03510    0.33840    0.78490    1.000
    C80      C        0.98440    0.23070    0.75200    1.000
    H60      H        0.93530    0.23280    0.77710    1.000
    C81      C        0.99560    0.16550    0.71160    1.000
    H61      H        0.95400    0.12290    0.70820    1.000
    C82      C        0.06790    0.16150    0.67540    1.000
    C83      C        0.12680    0.22500    0.68040    1.000
    H62      H        0.17590    0.22260    0.65530    1.000
    C84      C        0.07660    0.09170    0.63170    1.000
    C85      C        0.49510    0.37370    0.81980    1.000
    C86      C        0.43980    0.31160    0.78980    1.000
    C87      C        0.45640    0.28130    0.72950    1.000
    H63      H        0.50430    0.30000    0.70710    1.000
    C88      C        0.40080    0.22330    0.70360    1.000
    H64      H        0.40980    0.20410    0.66240    1.000
    C89      C        0.33240    0.19330    0.73700    1.000
    H65      H        0.29600    0.15280    0.71880    1.000
    C90      C        0.31670    0.22190    0.79680    1.000
    C91      C        0.37110    0.28200    0.82230    1.000
    H66      H        0.36040    0.30280    0.86290    1.000
    C92      C        0.24420    0.19200    0.83350    1.000
    C93      C        0.21680    0.23470    0.88650    1.000
    H67      H        0.24000    0.28810    0.89650    1.000
    C94      C        0.15660    0.19960    0.92400    1.000
    H68      H        0.13990    0.22970    0.96000    1.000
    C95      C        0.14050    0.08720    0.86020    1.000
    H69      H        0.11200    0.03670    0.84970    1.000
    C96      C        0.20130    0.11690    0.81980    1.000
    H70      H        0.21390    0.08670    0.78290    1.000
    N19      N        0.31330    0.47540    0.74240    1.000
    N20      N        0.01220    0.05400    0.60530    1.000
    N21      N        0.49310    0.45540    0.81640    1.000
    N22      N        0.14900    0.05640    0.61030    1.000
    N23      N        0.23110    0.07500    0.63100    1.000
    H71      H        0.25860    0.02650    0.64030    1.000
    H72      H        0.25920    0.10260    0.60020    1.000
    N24      N        0.37460    0.62000    0.66270    1.000
    C97      C        0.46300    0.25640    0.21400    1.000
    H73      H        0.49500    0.26070    0.17690    1.000
    C98      C        0.40570    0.19000    0.21910    1.000
    H74      H        0.39930    0.15080    0.18620    1.000
    C99      C        0.35780    0.18190    0.27340    1.000
    C100     C        0.37350    0.24060    0.31950    1.000
    H75      H        0.34470    0.23650    0.35810    1.000
    C101     C        0.43070    0.30480    0.31020    1.000
    H76      H        0.43880    0.34480    0.34240    1.000
    C102     C        0.29220    0.11680    0.27920    1.000
    C103     C        0.29340    0.04390    0.24330    1.000
    H77      H        0.33840    0.03510    0.21510    1.000
    C104     C        0.23070    0.98440    0.24800    1.000
    H78      H        0.23280    0.93530    0.22290    1.000
    C105     C        0.16550    0.99560    0.28840    1.000
    H79      H        0.12290    0.95400    0.29180    1.000
    C106     C        0.16150    0.06790    0.32460    1.000
    C107     C        0.22500    0.12680    0.31960    1.000
    H80      H        0.22260    0.17590    0.34470    1.000
    C108     C        0.09170    0.07660    0.36830    1.000
    C109     C        0.37370    0.49510    0.18020    1.000
    C110     C        0.31160    0.43980    0.21020    1.000
    C111     C        0.28130    0.45640    0.27050    1.000
    H81      H        0.30000    0.50430    0.29290    1.000
    C112     C        0.22330    0.40080    0.29640    1.000
    H82      H        0.20410    0.40980    0.33760    1.000
    C113     C        0.19330    0.33240    0.26300    1.000
    H83      H        0.15280    0.29600    0.28120    1.000
    C114     C        0.22190    0.31670    0.20320    1.000
    C115     C        0.28200    0.37110    0.17770    1.000
    H84      H        0.30280    0.36040    0.13710    1.000
    C116     C        0.19200    0.24420    0.16650    1.000
    C117     C        0.23470    0.21680    0.11350    1.000
    H85      H        0.28810    0.24000    0.10350    1.000
    C118     C        0.19960    0.15660    0.07600    1.000
    H86      H        0.22970    0.13990    0.04000    1.000
    C119     C        0.08720    0.14050    0.13980    1.000
    H87      H        0.03670    0.11200    0.15030    1.000
    C120     C        0.11690    0.20130    0.18020    1.000
    H88      H        0.08670    0.21390    0.21710    1.000
    N25      N        0.47540    0.31330    0.25760    1.000
    N26      N        0.05400    0.01220    0.39470    1.000
    N27      N        0.45540    0.49310    0.18360    1.000
    N28      N        0.05640    0.14900    0.38970    1.000
    N29      N        0.07500    0.23110    0.36900    1.000
    H89      H        0.02650    0.25860    0.35970    1.000
    H90      H        0.10260    0.25920    0.39980    1.000
    N30      N        0.62000    0.37460    0.33730    1.000
    C121     C        0.53700    0.74360    0.71400    1.000
    H91      H        0.50500    0.73930    0.67690    1.000
    C122     C        0.59430    0.81000    0.71910    1.000
    H92      H        0.60070    0.84920    0.68620    1.000
    C123     C        0.64220    0.81810    0.77340    1.000
    C124     C        0.62650    0.75940    0.81950    1.000
    H93      H        0.65530    0.76350    0.85810    1.000
    C125     C        0.56930    0.69520    0.81020    1.000
    H94      H        0.56120    0.65520    0.84240    1.000
    C126     C        0.70780    0.88320    0.77920    1.000
    C127     C        0.70660    0.95610    0.74330    1.000
    H95      H        0.66160    0.96490    0.71510    1.000
    C128     C        0.76930    0.01560    0.74800    1.000
    H96      H        0.76720    0.06470    0.72290    1.000
    C129     C        0.83450    0.00440    0.78840    1.000
    H97      H        0.87710    0.04600    0.79180    1.000
    C130     C        0.83850    0.93210    0.82460    1.000
    C131     C        0.77500    0.87320    0.81960    1.000
    H98      H        0.77740    0.82410    0.84470    1.000
    C132     C        0.90830    0.92340    0.86830    1.000
    C133     C        0.62630    0.50490    0.68020    1.000
    C134     C        0.68840    0.56020    0.71020    1.000
    C135     C        0.71870    0.54360    0.77050    1.000
    H99      H        0.70000    0.49570    0.79290    1.000
    C136     C        0.77670    0.59920    0.79640    1.000
    H100     H        0.79590    0.59020    0.83760    1.000
    C137     C        0.80670    0.66760    0.76300    1.000
    H101     H        0.84720    0.70400    0.78120    1.000
    C138     C        0.77810    0.68330    0.70320    1.000
    C139     C        0.71800    0.62890    0.67770    1.000
    H102     H        0.69720    0.63960    0.63710    1.000
    C140     C        0.80800    0.75580    0.66650    1.000
    C141     C        0.76530    0.78320    0.61350    1.000
    H103     H        0.71190    0.76000    0.60350    1.000
    C142     C        0.80040    0.84340    0.57600    1.000
    H104     H        0.77030    0.86010    0.54000    1.000
    C143     C        0.91280    0.85950    0.63980    1.000
    H105     H        0.96330    0.88800    0.65030    1.000
    C144     C        0.88310    0.79870    0.68020    1.000
    H106     H        0.91330    0.78610    0.71710    1.000
    N31      N        0.52460    0.68670    0.75760    1.000
    N32      N        0.94600    0.98780    0.89470    1.000
    N33      N        0.54460    0.50690    0.68360    1.000
    N34      N        0.94360    0.85100    0.88970    1.000
    N35      N        0.92500    0.76890    0.86900    1.000
    H107     H        0.97350    0.74140    0.85970    1.000
    H108     H        0.89740    0.74080    0.89980    1.000
    N36      N        0.38000    0.62540    0.83730    1.000
    C145     C        0.75640    0.03700    0.46400    1.000
    H109     H        0.76070    0.00500    0.42690    1.000
    C146     C        0.69000    0.09430    0.46910    1.000
    H110     H        0.65080    0.10070    0.43620    1.000
    C147     C        0.68190    0.14220    0.52340    1.000
    C148     C        0.74060    0.12650    0.56950    1.000
    H111     H        0.73650    0.15530    0.60810    1.000
    C149     C        0.80480    0.06930    0.56020    1.000
    H112     H        0.84480    0.06120    0.59240    1.000
    C150     C        0.61680    0.20780    0.52920    1.000
    C151     C        0.54390    0.20660    0.49330    1.000
    H113     H        0.53510    0.16160    0.46510    1.000
    C152     C        0.48440    0.26930    0.49800    1.000
    H114     H        0.43530    0.26720    0.47290    1.000
    C153     C        0.49560    0.33450    0.53840    1.000
    H115     H        0.45400    0.37710    0.54180    1.000
    C154     C        0.56790    0.33850    0.57460    1.000
    C155     C        0.62680    0.27500    0.56960    1.000
    H116     H        0.67590    0.27740    0.59470    1.000
    C156     C        0.57660    0.40830    0.61830    1.000
    C157     C        0.99510    0.12630    0.43020    1.000
    C158     C        0.93980    0.18840    0.46020    1.000
    C159     C        0.95640    0.21870    0.52050    1.000
    H117     H        0.00430    0.20000    0.54290    1.000
    C160     C        0.90080    0.27670    0.54640    1.000
    H118     H        0.90980    0.29590    0.58760    1.000
    C161     C        0.83240    0.30670    0.51300    1.000
    H119     H        0.79600    0.34720    0.53120    1.000
    C162     C        0.81670    0.27810    0.45320    1.000
    C163     C        0.87110    0.21800    0.42770    1.000
    H120     H        0.86040    0.19720    0.38710    1.000
    C164     C        0.74420    0.30800    0.41650    1.000
    C165     C        0.71680    0.26530    0.36350    1.000
    H121     H        0.74000    0.21190    0.35350    1.000
    C166     C        0.65660    0.30040    0.32600    1.000
    H122     H        0.63990    0.27030    0.29000    1.000
    C167     C        0.64050    0.41280    0.38980    1.000
    H123     H        0.61200    0.46330    0.40030    1.000
    C168     C        0.70130    0.38310    0.43020    1.000
    H124     H        0.71390    0.41330    0.46710    1.000
    N37      N        0.81330    0.02460    0.50760    1.000
    N38      N        0.51220    0.44600    0.64470    1.000
    N39      N        0.99310    0.04460    0.43360    1.000
    N40      N        0.64900    0.44360    0.63970    1.000
    N41      N        0.73110    0.42500    0.61900    1.000
    H125     H        0.75860    0.47350    0.60970    1.000
    H126     H        0.75920    0.39740    0.64980    1.000
    N42      N        0.87460    0.88000    0.58730    1.000
    C169     C        0.24360    0.96300    0.96400    1.000
    H127     H        0.23930    0.99500    0.92690    1.000
    C170     C        0.31000    0.90570    0.96910    1.000
    H128     H        0.34920    0.89930    0.93620    1.000
    C171     C        0.31810    0.85780    0.02340    1.000
    C172     C        0.25940    0.87350    0.06950    1.000
    H129     H        0.26350    0.84470    0.10810    1.000
    C173     C        0.19520    0.93070    0.06020    1.000
    H130     H        0.15520    0.93880    0.09240    1.000
    C174     C        0.38320    0.79220    0.02920    1.000
    C175     C        0.45610    0.79340    0.99330    1.000
    H131     H        0.46490    0.83840    0.96510    1.000
    C176     C        0.51560    0.73070    0.99800    1.000
    H132     H        0.56470    0.73280    0.97290    1.000
    C177     C        0.50440    0.66550    0.03840    1.000
    H133     H        0.54600    0.62290    0.04180    1.000
    C178     C        0.43210    0.66150    0.07460    1.000
    C179     C        0.37320    0.72500    0.06960    1.000
    H134     H        0.32410    0.72260    0.09470    1.000
    C180     C        0.42340    0.59170    0.11830    1.000
    C181     C        0.00490    0.87370    0.93020    1.000
    C182     C        0.06020    0.81160    0.96020    1.000
    C183     C        0.04360    0.78130    0.02050    1.000
    H135     H        0.99570    0.80000    0.04290    1.000
    C184     C        0.09920    0.72330    0.04640    1.000
    H136     H        0.09020    0.70410    0.08760    1.000
    C185     C        0.16760    0.69330    0.01300    1.000
    H137     H        0.20400    0.65280    0.03120    1.000
    C186     C        0.18330    0.72190    0.95320    1.000
    C187     C        0.12890    0.78200    0.92770    1.000
    H138     H        0.13960    0.80280    0.88710    1.000
    C188     C        0.25580    0.69200    0.91650    1.000
    C189     C        0.28320    0.73470    0.86350    1.000
    H139     H        0.26000    0.78810    0.85350    1.000
    C190     C        0.34340    0.69960    0.82600    1.000
    H140     H        0.36010    0.72970    0.79000    1.000
    C191     C        0.35950    0.58720    0.88980    1.000
    H141     H        0.38800    0.53670    0.90030    1.000
    C192     C        0.29870    0.61690    0.93020    1.000
    H142     H        0.28610    0.58670    0.96710    1.000
    N43      N        0.18670    0.97540    0.00760    1.000
    N44      N        0.48780    0.55400    0.14470    1.000
    N45      N        0.00690    0.95540    0.93360    1.000
    N46      N        0.35100    0.55640    0.13970    1.000
    N47      N        0.26890    0.57500    0.11900    1.000
    H143     H        0.24140    0.52650    0.10970    1.000
    H144     H        0.24080    0.60260    0.14980    1.000
    N48      N        0.12540    0.12000    0.08730    1.000
    Cd1      Cd       0.94113    0.94113    0.50000    1.000
    Cd2      Cd       0.05887    0.05887    0.00000    1.000
    Cd3      Cd       0.55887    0.44113    0.25000    1.000
    Cd4      Cd       0.44113    0.55887    0.75000    1.000
