# CIF file generated by openbabel 3.1.0, see https://openbabel.org
data_I
_chemical_name_common 'image0'
_cell_length_a 19.113
_cell_length_b 18.617
_cell_length_c 15.959
_cell_angle_alpha 90
_cell_angle_beta 90
_cell_angle_gamma 90
_space_group_name_H-M_alt 'P 1'
_space_group_name_Hall 'P 1'
loop_
    _symmetry_equiv_pos_as_xyz
    x,y,z
loop_
    _atom_site_label
    _atom_site_type_symbol
    _atom_site_fract_x
    _atom_site_fract_y
    _atom_site_fract_z
    _atom_site_occupancy
    Mo1      Mo       0.42039    0.90974    0.14083    1.000
    Mo2      Mo       0.46992    0.83938    0.32244    1.000
    Mo3      Mo       0.49130    0.83691    0.94374    1.000
    Cu1      Cu       0.55773    0.02130    0.21896    1.000
    O1       O        0.48880    0.97080    0.14940    1.000
    O2       O        0.40900    0.89800    0.25970    1.000
    O3       O        0.45030    0.88000    0.86300    1.000
    O4       O        0.49810    0.81780    0.17960    1.000
    O5       O        0.44020    0.87680    0.03280    1.000
    O6       O        0.85270    0.68430    0.35630    1.000
    N1       N        0.64040    0.98570    0.15940    1.000
    N2       N        0.48920    0.05450    0.30050    1.000
    N3       N        0.62790    0.04620    0.31070    1.000
    C1       C        0.64700    0.97510    0.07730    1.000
    H1       H        0.60800    0.98320    0.04160    1.000
    C2       C        0.69560    0.97760    0.21040    1.000
    C3       C        0.76120    0.95700    0.17960    1.000
    H2       H        0.80050    0.95230    0.21570    1.000
    C4       C        0.68320    0.98960    0.30200    1.000
    H3       H        0.72690    0.00550    0.32960    1.000
    H4       H        0.66760    0.94440    0.32890    1.000
    C5       C        0.66020    0.11820    0.29890    1.000
    H5       H        0.69840    0.12340    0.34040    1.000
    H6       H        0.68170    0.11960    0.24260    1.000
    C6       C        0.61320    0.18110    0.30710    1.000
    H7       H        0.59430    0.18380    0.36480    1.000
    H8       H        0.57340    0.17660    0.26770    1.000
    C7       C        0.42260    0.07180    0.28440    1.000
    H9       H        0.40660    0.07050    0.22800    1.000
    C8       C        0.37710    0.09120    0.34580    1.000
    H10      H        0.32930    0.10050    0.33330    1.000
    C9       C        0.76650    0.94380    0.09460    1.000
    H11      H        0.80990    0.92850    0.07180    1.000
    C10      C        0.71000    0.95250    0.04300    1.000
    H12      H        0.71380    0.94320    0.98460    1.000
    C11      C        0.51430    0.06020    0.37910    1.000
    C12      C        0.58960    0.04230    0.39130    1.000
    H13      H        0.61070    0.07630    0.43170    1.000
    H14      H        0.59380    0.99330    0.41480    1.000
    C13      C        0.47140    0.08130    0.44310    1.000
    H15      H        0.48950    0.08510    0.49830    1.000
    C14      C        0.40230    0.09710    0.42830    1.000
    H16      H        0.37230    0.11160    0.47260    1.000
    C15      C        0.74350    0.78360    0.18490    1.000
    C16      C        0.65870    0.79700    0.17400    1.000
    Mo4      Mo       0.07961    0.09026    0.64083    1.000
    Mo5      Mo       0.03008    0.16062    0.82244    1.000
    Mo6      Mo       0.00870    0.16309    0.44374    1.000
    Cu2      Cu       0.94227    0.97870    0.71896    1.000
    O7       O        0.01120    0.02920    0.64940    1.000
    O8       O        0.09100    0.10200    0.75970    1.000
    O9       O        0.04970    0.12000    0.36300    1.000
    O10      O        0.00190    0.18220    0.67960    1.000
    O11      O        0.05980    0.12320    0.53280    1.000
    O12      O        0.64730    0.31570    0.85630    1.000
    N4       N        0.85960    0.01430    0.65940    1.000
    N5       N        0.01080    0.94550    0.80050    1.000
    N6       N        0.87210    0.95380    0.81070    1.000
    C17      C        0.85300    0.02490    0.57730    1.000
    H17      H        0.89200    0.01680    0.54160    1.000
    C18      C        0.80440    0.02240    0.71040    1.000
    C19      C        0.73880    0.04300    0.67960    1.000
    H18      H        0.69950    0.04770    0.71570    1.000
    C20      C        0.81680    0.01040    0.80200    1.000
    H19      H        0.77310    0.99450    0.82960    1.000
    H20      H        0.83240    0.05560    0.82890    1.000
    C21      C        0.83980    0.88180    0.79890    1.000
    H21      H        0.80160    0.87660    0.84040    1.000
    H22      H        0.81830    0.88040    0.74260    1.000
    C22      C        0.88680    0.81890    0.80710    1.000
    H23      H        0.90570    0.81620    0.86480    1.000
    H24      H        0.92660    0.82340    0.76770    1.000
    C23      C        0.07740    0.92820    0.78440    1.000
    H25      H        0.09340    0.92950    0.72800    1.000
    C24      C        0.12290    0.90880    0.84580    1.000
    H26      H        0.17070    0.89950    0.83330    1.000
    C25      C        0.73350    0.05620    0.59460    1.000
    H27      H        0.69010    0.07150    0.57180    1.000
    C26      C        0.79000    0.04750    0.54300    1.000
    H28      H        0.78620    0.05680    0.48460    1.000
    C27      C        0.98570    0.93980    0.87910    1.000
    C28      C        0.91040    0.95770    0.89130    1.000
    H29      H        0.88930    0.92370    0.93170    1.000
    H30      H        0.90620    0.00670    0.91480    1.000
    C29      C        0.02860    0.91870    0.94310    1.000
    H31      H        0.01050    0.91490    0.99830    1.000
    C30      C        0.09770    0.90290    0.92830    1.000
    H32      H        0.12770    0.88840    0.97260    1.000
    C31      C        0.75650    0.21640    0.68490    1.000
    C32      C        0.84130    0.20300    0.67400    1.000
    Mo7      Mo       0.57961    0.40974    0.85917    1.000
    Mo8      Mo       0.53008    0.33938    0.67756    1.000
    Mo9      Mo       0.50870    0.33691    0.05626    1.000
    Cu3      Cu       0.44227    0.52130    0.78104    1.000
    O13      O        0.51120    0.47080    0.85060    1.000
    O14      O        0.59100    0.39800    0.74030    1.000
    O15      O        0.54970    0.38000    0.13700    1.000
    O16      O        0.50190    0.31780    0.82040    1.000
    O17      O        0.55980    0.37680    0.96720    1.000
    O18      O        0.14730    0.18430    0.64370    1.000
    N7       N        0.35960    0.48570    0.84060    1.000
    N8       N        0.51080    0.55450    0.69950    1.000
    N9       N        0.37210    0.54620    0.68930    1.000
    C33      C        0.35300    0.47510    0.92270    1.000
    H33      H        0.39200    0.48320    0.95840    1.000
    C34      C        0.30440    0.47760    0.78960    1.000
    C35      C        0.23880    0.45700    0.82040    1.000
    H34      H        0.19950    0.45230    0.78430    1.000
    C36      C        0.31680    0.48960    0.69800    1.000
    H35      H        0.27310    0.50550    0.67040    1.000
    H36      H        0.33240    0.44440    0.67110    1.000
    C37      C        0.33980    0.61820    0.70110    1.000
    H37      H        0.30160    0.62340    0.65960    1.000
    H38      H        0.31830    0.61960    0.75740    1.000
    C38      C        0.38680    0.68110    0.69290    1.000
    H39      H        0.40570    0.68380    0.63520    1.000
    H40      H        0.42660    0.67660    0.73230    1.000
    C39      C        0.57740    0.57180    0.71560    1.000
    H41      H        0.59340    0.57050    0.77200    1.000
    C40      C        0.62290    0.59120    0.65420    1.000
    H42      H        0.67070    0.60050    0.66670    1.000
    C41      C        0.23350    0.44380    0.90540    1.000
    H43      H        0.19010    0.42850    0.92820    1.000
    C42      C        0.29000    0.45250    0.95700    1.000
    H44      H        0.28620    0.44320    0.01540    1.000
    C43      C        0.48570    0.56020    0.62090    1.000
    C44      C        0.41040    0.54230    0.60870    1.000
    H45      H        0.38930    0.57630    0.56830    1.000
    H46      H        0.40620    0.49330    0.58520    1.000
    C45      C        0.52860    0.58130    0.55690    1.000
    H47      H        0.51050    0.58510    0.50170    1.000
    C46      C        0.59770    0.59710    0.57170    1.000
    H48      H        0.62770    0.61160    0.52740    1.000
    C47      C        0.25650    0.28360    0.81510    1.000
    C48      C        0.34130    0.29700    0.82600    1.000
    Mo10     Mo       0.92039    0.59026    0.35917    1.000
    Mo11     Mo       0.96992    0.66062    0.17756    1.000
    Mo12     Mo       0.99130    0.66309    0.55626    1.000
    Cu4      Cu       0.05773    0.47870    0.28104    1.000
    O19      O        0.98880    0.52920    0.35060    1.000
    O20      O        0.90900    0.60200    0.24030    1.000
    O21      O        0.95030    0.62000    0.63700    1.000
    O22      O        0.99810    0.68220    0.32040    1.000
    O23      O        0.94020    0.62320    0.46720    1.000
    O24      O        0.35270    0.81570    0.14370    1.000
    N10      N        0.14040    0.51430    0.34060    1.000
    N11      N        0.98920    0.44550    0.19950    1.000
    N12      N        0.12790    0.45380    0.18930    1.000
    C49      C        0.14700    0.52490    0.42270    1.000
    H49      H        0.10800    0.51680    0.45840    1.000
    C50      C        0.19560    0.52240    0.28960    1.000
    C51      C        0.26120    0.54300    0.32040    1.000
    H50      H        0.30050    0.54770    0.28430    1.000
    C52      C        0.18320    0.51040    0.19800    1.000
    H51      H        0.22690    0.49450    0.17040    1.000
    H52      H        0.16760    0.55560    0.17110    1.000
    C53      C        0.16020    0.38180    0.20110    1.000
    H53      H        0.19840    0.37660    0.15960    1.000
    H54      H        0.18170    0.38040    0.25740    1.000
    C54      C        0.11320    0.31890    0.19290    1.000
    H55      H        0.09430    0.31620    0.13520    1.000
    H56      H        0.07340    0.32340    0.23230    1.000
    C55      C        0.92260    0.42820    0.21560    1.000
    H57      H        0.90660    0.42950    0.27200    1.000
    C56      C        0.87710    0.40880    0.15420    1.000
    H58      H        0.82930    0.39950    0.16670    1.000
    C57      C        0.26650    0.55620    0.40540    1.000
    H59      H        0.30990    0.57150    0.42820    1.000
    C58      C        0.21000    0.54750    0.45700    1.000
    H60      H        0.21380    0.55680    0.51540    1.000
    C59      C        0.01430    0.43980    0.12090    1.000
    C60      C        0.08960    0.45770    0.10870    1.000
    H61      H        0.11070    0.42370    0.06830    1.000
    H62      H        0.09380    0.50670    0.08520    1.000
    C61      C        0.97140    0.41870    0.05690    1.000
    H63      H        0.98950    0.41490    0.00170    1.000
    C62      C        0.90230    0.40290    0.07170    1.000
    H64      H        0.87230    0.38840    0.02740    1.000
    C63      C        0.24350    0.71640    0.31510    1.000
    C64      C        0.15870    0.70300    0.32600    1.000
    Mo13     Mo       0.57961    0.09026    0.85917    1.000
    Mo14     Mo       0.53008    0.16062    0.67756    1.000
    Mo15     Mo       0.50870    0.16309    0.05626    1.000
    Cu5      Cu       0.44227    0.97870    0.78104    1.000
    O25      O        0.51120    0.02920    0.85060    1.000
    O26      O        0.59100    0.10200    0.74030    1.000
    O27      O        0.54970    0.12000    0.13700    1.000
    O28      O        0.50190    0.18220    0.82040    1.000
    O29      O        0.55980    0.12320    0.96720    1.000
    O30      O        0.14730    0.31570    0.64370    1.000
    N13      N        0.35960    0.01430    0.84060    1.000
    N14      N        0.51080    0.94550    0.69950    1.000
    N15      N        0.37210    0.95380    0.68930    1.000
    C65      C        0.35300    0.02490    0.92270    1.000
    H65      H        0.39200    0.01680    0.95840    1.000
    C66      C        0.30440    0.02240    0.78960    1.000
    C67      C        0.23880    0.04300    0.82040    1.000
    H66      H        0.19950    0.04770    0.78430    1.000
    C68      C        0.31680    0.01040    0.69800    1.000
    H67      H        0.27310    0.99450    0.67040    1.000
    H68      H        0.33240    0.05560    0.67110    1.000
    C69      C        0.33980    0.88180    0.70110    1.000
    H69      H        0.30160    0.87660    0.65960    1.000
    H70      H        0.31830    0.88040    0.75740    1.000
    C70      C        0.38680    0.81890    0.69290    1.000
    H71      H        0.40570    0.81620    0.63520    1.000
    H72      H        0.42660    0.82340    0.73230    1.000
    C71      C        0.57740    0.92820    0.71560    1.000
    H73      H        0.59340    0.92950    0.77200    1.000
    C72      C        0.62290    0.90880    0.65420    1.000
    H74      H        0.67070    0.89950    0.66670    1.000
    C73      C        0.23350    0.05620    0.90540    1.000
    H75      H        0.19010    0.07150    0.92820    1.000
    C74      C        0.29000    0.04750    0.95700    1.000
    H76      H        0.28620    0.05680    0.01540    1.000
    C75      C        0.48570    0.93980    0.62090    1.000
    C76      C        0.41040    0.95770    0.60870    1.000
    H77      H        0.38930    0.92370    0.56830    1.000
    H78      H        0.40620    0.00670    0.58520    1.000
    C77      C        0.52860    0.91870    0.55690    1.000
    H79      H        0.51050    0.91490    0.50170    1.000
    C78      C        0.59770    0.90290    0.57170    1.000
    H80      H        0.62770    0.88840    0.52740    1.000
    C79      C        0.25650    0.21640    0.81510    1.000
    C80      C        0.34130    0.20300    0.82600    1.000
    Mo16     Mo       0.92039    0.90974    0.35917    1.000
    Mo17     Mo       0.96992    0.83938    0.17756    1.000
    Mo18     Mo       0.99130    0.83691    0.55626    1.000
    Cu6      Cu       0.05773    0.02130    0.28104    1.000
    O31      O        0.98880    0.97080    0.35060    1.000
    O32      O        0.90900    0.89800    0.24030    1.000
    O33      O        0.95030    0.88000    0.63700    1.000
    O34      O        0.99810    0.81780    0.32040    1.000
    O35      O        0.94020    0.87680    0.46720    1.000
    O36      O        0.35270    0.68430    0.14370    1.000
    N16      N        0.14040    0.98570    0.34060    1.000
    N17      N        0.98920    0.05450    0.19950    1.000
    N18      N        0.12790    0.04620    0.18930    1.000
    C81      C        0.14700    0.97510    0.42270    1.000
    H81      H        0.10800    0.98320    0.45840    1.000
    C82      C        0.19560    0.97760    0.28960    1.000
    C83      C        0.26120    0.95700    0.32040    1.000
    H82      H        0.30050    0.95230    0.28430    1.000
    C84      C        0.18320    0.98960    0.19800    1.000
    H83      H        0.22690    0.00550    0.17040    1.000
    H84      H        0.16760    0.94440    0.17110    1.000
    C85      C        0.16020    0.11820    0.20110    1.000
    H85      H        0.19840    0.12340    0.15960    1.000
    H86      H        0.18170    0.11960    0.25740    1.000
    C86      C        0.11320    0.18110    0.19290    1.000
    H87      H        0.09430    0.18380    0.13520    1.000
    H88      H        0.07340    0.17660    0.23230    1.000
    C87      C        0.92260    0.07180    0.21560    1.000
    H89      H        0.90660    0.07050    0.27200    1.000
    C88      C        0.87710    0.09120    0.15420    1.000
    H90      H        0.82930    0.10050    0.16670    1.000
    C89      C        0.26650    0.94380    0.40540    1.000
    H91      H        0.30990    0.92850    0.42820    1.000
    C90      C        0.21000    0.95250    0.45700    1.000
    H92      H        0.21380    0.94320    0.51540    1.000
    C91      C        0.01430    0.06020    0.12090    1.000
    C92      C        0.08960    0.04230    0.10870    1.000
    H93      H        0.11070    0.07630    0.06830    1.000
    H94      H        0.09380    0.99330    0.08520    1.000
    C93      C        0.97140    0.08130    0.05690    1.000
    H95      H        0.98950    0.08510    0.00170    1.000
    C94      C        0.90230    0.09710    0.07170    1.000
    H96      H        0.87230    0.11160    0.02740    1.000
    C95      C        0.24350    0.78360    0.31510    1.000
    C96      C        0.15870    0.79700    0.32600    1.000
    Mo19     Mo       0.42039    0.59026    0.14083    1.000
    Mo20     Mo       0.46992    0.66062    0.32244    1.000
    Mo21     Mo       0.49130    0.66309    0.94374    1.000
    Cu7      Cu       0.55773    0.47870    0.21896    1.000
    O37      O        0.48880    0.52920    0.14940    1.000
    O38      O        0.40900    0.60200    0.25970    1.000
    O39      O        0.45030    0.62000    0.86300    1.000
    O40      O        0.49810    0.68220    0.17960    1.000
    O41      O        0.44020    0.62320    0.03280    1.000
    O42      O        0.85270    0.81570    0.35630    1.000
    N19      N        0.64040    0.51430    0.15940    1.000
    N20      N        0.48920    0.44550    0.30050    1.000
    N21      N        0.62790    0.45380    0.31070    1.000
    C97      C        0.64700    0.52490    0.07730    1.000
    H97      H        0.60800    0.51680    0.04160    1.000
    C98      C        0.69560    0.52240    0.21040    1.000
    C99      C        0.76120    0.54300    0.17960    1.000
    H98      H        0.80050    0.54770    0.21570    1.000
    C100     C        0.68320    0.51040    0.30200    1.000
    H99      H        0.72690    0.49450    0.32960    1.000
    H100     H        0.66760    0.55560    0.32890    1.000
    C101     C        0.66020    0.38180    0.29890    1.000
    H101     H        0.69840    0.37660    0.34040    1.000
    H102     H        0.68170    0.38040    0.24260    1.000
    C102     C        0.61320    0.31890    0.30710    1.000
    H103     H        0.59430    0.31620    0.36480    1.000
    H104     H        0.57340    0.32340    0.26770    1.000
    C103     C        0.42260    0.42820    0.28440    1.000
    H105     H        0.40660    0.42950    0.22800    1.000
    C104     C        0.37710    0.40880    0.34580    1.000
    H106     H        0.32930    0.39950    0.33330    1.000
    C105     C        0.76650    0.55620    0.09460    1.000
    H107     H        0.80990    0.57150    0.07180    1.000
    C106     C        0.71000    0.54750    0.04300    1.000
    H108     H        0.71380    0.55680    0.98460    1.000
    C107     C        0.51430    0.43980    0.37910    1.000
    C108     C        0.58960    0.45770    0.39130    1.000
    H109     H        0.61070    0.42370    0.43170    1.000
    H110     H        0.59380    0.50670    0.41480    1.000
    C109     C        0.47140    0.41870    0.44310    1.000
    H111     H        0.48950    0.41490    0.49830    1.000
    C110     C        0.40230    0.40290    0.42830    1.000
    H112     H        0.37230    0.38840    0.47260    1.000
    C111     C        0.74350    0.71640    0.18490    1.000
    C112     C        0.65870    0.70300    0.17400    1.000
    Mo22     Mo       0.07961    0.40974    0.64083    1.000
    Mo23     Mo       0.03008    0.33938    0.82244    1.000
    Mo24     Mo       0.00870    0.33691    0.44374    1.000
    Cu8      Cu       0.94227    0.52130    0.71896    1.000
    O43      O        0.01120    0.47080    0.64940    1.000
    O44      O        0.09100    0.39800    0.75970    1.000
    O45      O        0.04970    0.38000    0.36300    1.000
    O46      O        0.00190    0.31780    0.67960    1.000
    O47      O        0.05980    0.37680    0.53280    1.000
    O48      O        0.64730    0.18430    0.85630    1.000
    N22      N        0.85960    0.48570    0.65940    1.000
    N23      N        0.01080    0.55450    0.80050    1.000
    N24      N        0.87210    0.54620    0.81070    1.000
    C113     C        0.85300    0.47510    0.57730    1.000
    H113     H        0.89200    0.48320    0.54160    1.000
    C114     C        0.80440    0.47760    0.71040    1.000
    C115     C        0.73880    0.45700    0.67960    1.000
    H114     H        0.69950    0.45230    0.71570    1.000
    C116     C        0.81680    0.48960    0.80200    1.000
    H115     H        0.77310    0.50550    0.82960    1.000
    H116     H        0.83240    0.44440    0.82890    1.000
    C117     C        0.83980    0.61820    0.79890    1.000
    H117     H        0.80160    0.62340    0.84040    1.000
    H118     H        0.81830    0.61960    0.74260    1.000
    C118     C        0.88680    0.68110    0.80710    1.000
    H119     H        0.90570    0.68380    0.86480    1.000
    H120     H        0.92660    0.67660    0.76770    1.000
    C119     C        0.07740    0.57180    0.78440    1.000
    H121     H        0.09340    0.57050    0.72800    1.000
    C120     C        0.12290    0.59120    0.84580    1.000
    H122     H        0.17070    0.60050    0.83330    1.000
    C121     C        0.73350    0.44380    0.59460    1.000
    H123     H        0.69010    0.42850    0.57180    1.000
    C122     C        0.79000    0.45250    0.54300    1.000
    H124     H        0.78620    0.44320    0.48460    1.000
    C123     C        0.98570    0.56020    0.87910    1.000
    C124     C        0.91040    0.54230    0.89130    1.000
    H125     H        0.88930    0.57630    0.93170    1.000
    H126     H        0.90620    0.49330    0.91480    1.000
    C125     C        0.02860    0.58130    0.94310    1.000
    H127     H        0.01050    0.58510    0.99830    1.000
    C126     C        0.09770    0.59710    0.92830    1.000
    H128     H        0.12770    0.61160    0.97260    1.000
    C127     C        0.75650    0.28360    0.68490    1.000
    C128     C        0.84130    0.29700    0.67400    1.000
    P1       P        0.52772    0.75000    0.14020    1.000
    P2       P        0.84509    0.75000    0.30190    1.000
    O49      O        0.39450    0.75000    0.96170    1.000
    O50      O        0.89460    0.75000    0.22470    1.000
    O51      O        0.51880    0.75000    0.33540    1.000
    O52      O        0.51570    0.75000    0.88730    1.000
    O53      O        0.51530    0.75000    0.04470    1.000
    C129     C        0.61790    0.75000    0.15770    1.000
    C130     C        0.75700    0.75000    0.26390    1.000
    P3       P        0.97228    0.25000    0.64020    1.000
    P4       P        0.65491    0.25000    0.80190    1.000
    O54      O        0.10550    0.25000    0.46170    1.000
    O55      O        0.60540    0.25000    0.72470    1.000
    O56      O        0.98120    0.25000    0.83540    1.000
    O57      O        0.98430    0.25000    0.38730    1.000
    O58      O        0.98470    0.25000    0.54470    1.000
    C131     C        0.88210    0.25000    0.65770    1.000
    C132     C        0.74300    0.25000    0.76390    1.000
    P5       P        0.47228    0.25000    0.85980    1.000
    P6       P        0.15491    0.25000    0.69810    1.000
    O59      O        0.60550    0.25000    0.03830    1.000
    O60      O        0.10540    0.25000    0.77530    1.000
    O61      O        0.48120    0.25000    0.66460    1.000
    O62      O        0.48430    0.25000    0.11270    1.000
    O63      O        0.48470    0.25000    0.95530    1.000
    C133     C        0.38210    0.25000    0.84230    1.000
    C134     C        0.24300    0.25000    0.73610    1.000
    P7       P        0.02772    0.75000    0.35980    1.000
    P8       P        0.34509    0.75000    0.19810    1.000
    O64      O        0.89450    0.75000    0.53830    1.000
    O65      O        0.39460    0.75000    0.27530    1.000
    O66      O        0.01880    0.75000    0.16460    1.000
    O67      O        0.01570    0.75000    0.61270    1.000
    O68      O        0.01530    0.75000    0.45530    1.000
    C135     C        0.11790    0.75000    0.34230    1.000
    C136     C        0.25700    0.75000    0.23610    1.000
    C137     C        0.65610    0.25000    0.28690    1.000
    C138     C        0.84390    0.75000    0.78690    1.000
    C139     C        0.34390    0.75000    0.71310    1.000
    C140     C        0.15610    0.25000    0.21310    1.000
