# CIF file generated by openbabel 3.1.0, see https://openbabel.org
data_I
_chemical_name_common 'image0'
_cell_length_a 14.9927
_cell_length_b 17.2321
_cell_length_c 24.798
_cell_angle_alpha 90
_cell_angle_beta 90
_cell_angle_gamma 90
_space_group_name_H-M_alt 'P 1'
_space_group_name_Hall 'P 1'
loop_
    _symmetry_equiv_pos_as_xyz
    x,y,z
loop_
    _atom_site_label
    _atom_site_type_symbol
    _atom_site_fract_x
    _atom_site_fract_y
    _atom_site_fract_z
    _atom_site_occupancy
    O1       O        0.85710    0.21670    0.44174    1.000
    O2       O        0.30920    0.03270    0.06131    1.000
    O3       O        0.24650    0.14850    0.05876    1.000
    C1       C        0.07560    0.02310    0.20663    1.000
    C2       C        0.97610    0.06680    0.28504    1.000
    C3       C        0.19320    0.06220    0.12290    1.000
    C4       C        0.14870    0.97730    0.19560    1.000
    H1       H        0.15920    0.93340    0.21650    1.000
    C5       C        0.12350    0.10870    0.13500    1.000
    H2       H        0.11570    0.15480    0.11610    1.000
    C6       C        0.20690    0.99530    0.15390    1.000
    H3       H        0.25500    0.96300    0.14660    1.000
    C7       C        0.06330    0.08880    0.17500    1.000
    H4       H        0.01370    0.12010    0.18090    1.000
    O4       O        0.97260    0.28840    0.41590    1.000
    C8       C        0.89810    0.05990    0.31630    1.000
    H5       H        0.85790    0.01990    0.30960    1.000
    C9       C        0.88140    0.11320    0.35720    1.000
    H6       H        0.83010    0.10860    0.37810    1.000
    C10      C        0.25610    0.08320    0.07750    1.000
    C11      C        0.94060    0.17280    0.36700    1.000
    C12      C        0.03180    0.12760    0.29480    1.000
    H7       H        0.08260    0.13400    0.27370    1.000
    C13      C        0.01380    0.17940    0.33520    1.000
    H8       H        0.05300    0.22040    0.34100    1.000
    C14      C        0.91990    0.22940    0.41230    1.000
    O5       O        0.14290    0.78330    0.44174    1.000
    O6       O        0.69080    0.96730    0.06131    1.000
    O7       O        0.75350    0.85150    0.05876    1.000
    C15      C        0.92440    0.97690    0.20663    1.000
    C16      C        0.02390    0.93320    0.28504    1.000
    C17      C        0.80680    0.93780    0.12290    1.000
    C18      C        0.85130    0.02270    0.19560    1.000
    H9       H        0.84080    0.06660    0.21650    1.000
    C19      C        0.87650    0.89130    0.13500    1.000
    H10      H        0.88430    0.84520    0.11610    1.000
    C20      C        0.79310    0.00470    0.15390    1.000
    H11      H        0.74500    0.03700    0.14660    1.000
    C21      C        0.93670    0.91120    0.17500    1.000
    H12      H        0.98630    0.87990    0.18090    1.000
    O8       O        0.02740    0.71160    0.41590    1.000
    C22      C        0.10190    0.94010    0.31630    1.000
    H13      H        0.14210    0.98010    0.30960    1.000
    C23      C        0.11860    0.88680    0.35720    1.000
    H14      H        0.16990    0.89140    0.37810    1.000
    C24      C        0.74390    0.91680    0.07750    1.000
    C25      C        0.05940    0.82720    0.36700    1.000
    C26      C        0.96820    0.87240    0.29480    1.000
    H15      H        0.91740    0.86600    0.27370    1.000
    C27      C        0.98620    0.82060    0.33520    1.000
    H16      H        0.94700    0.77960    0.34100    1.000
    C28      C        0.08010    0.77060    0.41230    1.000
    O9       O        0.64290    0.71670    0.05826    1.000
    O10      O        0.19080    0.53270    0.43869    1.000
    O11      O        0.25350    0.64850    0.44124    1.000
    C29      C        0.42440    0.52310    0.29337    1.000
    C30      C        0.52390    0.56680    0.21496    1.000
    C31      C        0.30680    0.56220    0.37710    1.000
    C32      C        0.35130    0.47730    0.30440    1.000
    H17      H        0.34080    0.43340    0.28350    1.000
    C33      C        0.37650    0.60870    0.36500    1.000
    H18      H        0.38430    0.65480    0.38390    1.000
    C34      C        0.29310    0.49530    0.34610    1.000
    H19      H        0.24500    0.46300    0.35340    1.000
    C35      C        0.43670    0.58880    0.32500    1.000
    H20      H        0.48630    0.62010    0.31910    1.000
    O12      O        0.52740    0.78840    0.08410    1.000
    C36      C        0.60190    0.55990    0.18370    1.000
    H21      H        0.64210    0.51990    0.19040    1.000
    C37      C        0.61860    0.61320    0.14280    1.000
    H22      H        0.66990    0.60860    0.12190    1.000
    C38      C        0.24390    0.58320    0.42250    1.000
    C39      C        0.55940    0.67280    0.13300    1.000
    C40      C        0.46820    0.62760    0.20520    1.000
    H23      H        0.41740    0.63400    0.22630    1.000
    C41      C        0.48620    0.67940    0.16480    1.000
    H24      H        0.44700    0.72040    0.15900    1.000
    C42      C        0.58010    0.72940    0.08770    1.000
    O13      O        0.35710    0.28330    0.05826    1.000
    O14      O        0.80920    0.46730    0.43869    1.000
    O15      O        0.74650    0.35150    0.44124    1.000
    C43      C        0.57560    0.47690    0.29337    1.000
    C44      C        0.47610    0.43320    0.21496    1.000
    C45      C        0.69320    0.43780    0.37710    1.000
    C46      C        0.64870    0.52270    0.30440    1.000
    H25      H        0.65920    0.56660    0.28350    1.000
    C47      C        0.62350    0.39130    0.36500    1.000
    H26      H        0.61570    0.34520    0.38390    1.000
    C48      C        0.70690    0.50470    0.34610    1.000
    H27      H        0.75500    0.53700    0.35340    1.000
    C49      C        0.56330    0.41120    0.32500    1.000
    H28      H        0.51370    0.37990    0.31910    1.000
    O16      O        0.47260    0.21160    0.08410    1.000
    C50      C        0.39810    0.44010    0.18370    1.000
    H29      H        0.35790    0.48010    0.19040    1.000
    C51      C        0.38140    0.38680    0.14280    1.000
    H30      H        0.33010    0.39140    0.12190    1.000
    C52      C        0.75610    0.41680    0.42250    1.000
    C53      C        0.44060    0.32720    0.13300    1.000
    C54      C        0.53180    0.37240    0.20520    1.000
    H31      H        0.58260    0.36600    0.22630    1.000
    C55      C        0.51380    0.32060    0.16480    1.000
    H32      H        0.55300    0.27960    0.15900    1.000
    C56      C        0.41990    0.27060    0.08770    1.000
    O17      O        0.14290    0.78330    0.55826    1.000
    O18      O        0.69080    0.96730    0.93869    1.000
    O19      O        0.75350    0.85150    0.94124    1.000
    C57      C        0.92440    0.97690    0.79337    1.000
    C58      C        0.02390    0.93320    0.71496    1.000
    C59      C        0.80680    0.93780    0.87710    1.000
    C60      C        0.85130    0.02270    0.80440    1.000
    H33      H        0.84080    0.06660    0.78350    1.000
    C61      C        0.87650    0.89130    0.86500    1.000
    H34      H        0.88430    0.84520    0.88390    1.000
    C62      C        0.79310    0.00470    0.84610    1.000
    H35      H        0.74500    0.03700    0.85340    1.000
    C63      C        0.93670    0.91120    0.82500    1.000
    H36      H        0.98630    0.87990    0.81910    1.000
    O20      O        0.02740    0.71160    0.58410    1.000
    C64      C        0.10190    0.94010    0.68370    1.000
    H37      H        0.14210    0.98010    0.69040    1.000
    C65      C        0.11860    0.88680    0.64280    1.000
    H38      H        0.16990    0.89140    0.62190    1.000
    C66      C        0.74390    0.91680    0.92250    1.000
    C67      C        0.05940    0.82720    0.63300    1.000
    C68      C        0.96820    0.87240    0.70520    1.000
    H39      H        0.91740    0.86600    0.72630    1.000
    C69      C        0.98620    0.82060    0.66480    1.000
    H40      H        0.94700    0.77960    0.65900    1.000
    C70      C        0.08010    0.77060    0.58770    1.000
    O21      O        0.85710    0.21670    0.55826    1.000
    O22      O        0.30920    0.03270    0.93869    1.000
    O23      O        0.24650    0.14850    0.94124    1.000
    C71      C        0.07560    0.02310    0.79337    1.000
    C72      C        0.97610    0.06680    0.71496    1.000
    C73      C        0.19320    0.06220    0.87710    1.000
    C74      C        0.14870    0.97730    0.80440    1.000
    H41      H        0.15920    0.93340    0.78350    1.000
    C75      C        0.12350    0.10870    0.86500    1.000
    H42      H        0.11570    0.15480    0.88390    1.000
    C76      C        0.20690    0.99530    0.84610    1.000
    H43      H        0.25500    0.96300    0.85340    1.000
    C77      C        0.06330    0.08880    0.82500    1.000
    H44      H        0.01370    0.12010    0.81910    1.000
    O24      O        0.97260    0.28840    0.58410    1.000
    C78      C        0.89810    0.05990    0.68370    1.000
    H45      H        0.85790    0.01990    0.69040    1.000
    C79      C        0.88140    0.11320    0.64280    1.000
    H46      H        0.83010    0.10860    0.62190    1.000
    C80      C        0.25610    0.08320    0.92250    1.000
    C81      C        0.94060    0.17280    0.63300    1.000
    C82      C        0.03180    0.12760    0.70520    1.000
    H47      H        0.08260    0.13400    0.72630    1.000
    C83      C        0.01380    0.17940    0.66480    1.000
    H48      H        0.05300    0.22040    0.65900    1.000
    C84      C        0.91990    0.22940    0.58770    1.000
    O25      O        0.35710    0.28330    0.94174    1.000
    O26      O        0.80920    0.46730    0.56131    1.000
    O27      O        0.74650    0.35150    0.55876    1.000
    C85      C        0.57560    0.47690    0.70663    1.000
    C86      C        0.47610    0.43320    0.78504    1.000
    C87      C        0.69320    0.43780    0.62290    1.000
    C88      C        0.64870    0.52270    0.69560    1.000
    H49      H        0.65920    0.56660    0.71650    1.000
    C89      C        0.62350    0.39130    0.63500    1.000
    H50      H        0.61570    0.34520    0.61610    1.000
    C90      C        0.70690    0.50470    0.65390    1.000
    H51      H        0.75500    0.53700    0.64660    1.000
    C91      C        0.56330    0.41120    0.67500    1.000
    H52      H        0.51370    0.37990    0.68090    1.000
    O28      O        0.47260    0.21160    0.91590    1.000
    C92      C        0.39810    0.44010    0.81630    1.000
    H53      H        0.35790    0.48010    0.80960    1.000
    C93      C        0.38140    0.38680    0.85720    1.000
    H54      H        0.33010    0.39140    0.87810    1.000
    C94      C        0.75610    0.41680    0.57750    1.000
    C95      C        0.44060    0.32720    0.86700    1.000
    C96      C        0.53180    0.37240    0.79480    1.000
    H55      H        0.58260    0.36600    0.77370    1.000
    C97      C        0.51380    0.32060    0.83520    1.000
    H56      H        0.55300    0.27960    0.84100    1.000
    C98      C        0.41990    0.27060    0.91230    1.000
    O29      O        0.64290    0.71670    0.94174    1.000
    O30      O        0.19080    0.53270    0.56131    1.000
    O31      O        0.25350    0.64850    0.55876    1.000
    C99      C        0.42440    0.52310    0.70663    1.000
    C100     C        0.52390    0.56680    0.78504    1.000
    C101     C        0.30680    0.56220    0.62290    1.000
    C102     C        0.35130    0.47730    0.69560    1.000
    H57      H        0.34080    0.43340    0.71650    1.000
    C103     C        0.37650    0.60870    0.63500    1.000
    H58      H        0.38430    0.65480    0.61610    1.000
    C104     C        0.29310    0.49530    0.65390    1.000
    H59      H        0.24500    0.46300    0.64660    1.000
    C105     C        0.43670    0.58880    0.67500    1.000
    H60      H        0.48630    0.62010    0.68090    1.000
    O32      O        0.52740    0.78840    0.91590    1.000
    C106     C        0.60190    0.55990    0.81630    1.000
    H61      H        0.64210    0.51990    0.80960    1.000
    C107     C        0.61860    0.61320    0.85720    1.000
    H62      H        0.66990    0.60860    0.87810    1.000
    C108     C        0.24390    0.58320    0.57750    1.000
    C109     C        0.55940    0.67280    0.86700    1.000
    C110     C        0.46820    0.62760    0.79480    1.000
    H63      H        0.41740    0.63400    0.77370    1.000
    C111     C        0.48620    0.67940    0.83520    1.000
    H64      H        0.44700    0.72040    0.84100    1.000
    C112     C        0.58010    0.72940    0.91230    1.000
    Ni1      Ni       0.30544    0.21086    0.00000    1.000
    Ni2      Ni       0.39507    0.02422    0.00000    1.000
    O33      O        0.42070    0.14060    0.00000    1.000
    Ni3      Ni       0.69456    0.78914    0.00000    1.000
    Ni4      Ni       0.60493    0.97578    0.00000    1.000
    O34      O        0.57930    0.85940    0.00000    1.000
    Ni5      Ni       0.19456    0.71086    0.50000    1.000
    Ni6      Ni       0.10493    0.52422    0.50000    1.000
    O35      O        0.07930    0.64060    0.50000    1.000
    Ni7      Ni       0.80544    0.28914    0.50000    1.000
    Ni8      Ni       0.89507    0.47578    0.50000    1.000
    O36      O        0.92070    0.35940    0.50000    1.000
    C113     C        0.00000    0.00000    0.24590    1.000
    C114     C        0.50000    0.50000    0.25410    1.000
    C115     C        0.00000    0.00000    0.75410    1.000
    C116     C        0.50000    0.50000    0.74590    1.000
    O37      O        0.50000    0.00000    0.05620    1.000
    O38      O        0.00000    0.50000    0.44380    1.000
    O39      O        0.50000    0.00000    0.94380    1.000
    O40      O        0.00000    0.50000    0.55620    1.000
