# CIF file generated by openbabel 3.1.0, see https://openbabel.org
data_I
_chemical_name_common 'KUQXIE_clean'
_cell_length_a 8.3989
_cell_length_b 8.535
_cell_length_c 11.4883
_cell_angle_alpha 89.325
_cell_angle_beta 69.014
_cell_angle_gamma 67.269
_space_group_name_H-M_alt 'P 1'
_space_group_name_Hall 'P 1'
loop_
    _symmetry_equiv_pos_as_xyz
    x,y,z
loop_
    _atom_site_label
    _atom_site_type_symbol
    _atom_site_fract_x
    _atom_site_fract_y
    _atom_site_fract_z
    _atom_site_occupancy
    Cd1      Cd       0.23633    0.80077    0.88986    1.000
    Cd2      Cd       0.14802    0.43842    0.59229    1.000
    Cd3      Cd       0.76367    0.19923    0.11014    1.000
    Cd4      Cd       0.85198    0.56158    0.40771    1.000
    H1       H        0.28560    0.16710    0.14000    1.000
    H2       H        0.71440    0.83290    0.86000    1.000
    C1       C        0.28290    0.70300    0.15180    1.000
    C2       C        0.27980    0.54370    0.09620    1.000
    C3       C        0.28860    0.40080    0.15790    1.000
    C4       C        0.31130    0.38440    0.28270    1.000
    C5       C        0.27630    0.26530    0.10200    1.000
    C6       C        0.25000    0.27640    0.98890    1.000
    C7       C        0.23370    0.12450    0.93570    1.000
    C8       C        0.24090    0.42330    0.93370    1.000
    C9       C        0.19980    0.45490    0.81700    1.000
    C10      C        0.71710    0.29700    0.84820    1.000
    C11      C        0.72020    0.45630    0.90380    1.000
    C12      C        0.71140    0.59920    0.84210    1.000
    C13      C        0.68870    0.61560    0.71730    1.000
    C14      C        0.72370    0.73470    0.89800    1.000
    C15      C        0.75000    0.72360    0.01110    1.000
    C16      C        0.76630    0.87550    0.06430    1.000
    C17      C        0.75910    0.57670    0.06630    1.000
    C18      C        0.80020    0.54510    0.18300    1.000
    N1       N        0.26030    0.55210    0.98570    1.000
    N2       N        0.73970    0.44790    0.01430    1.000
    O1       O        0.27160    0.82510    0.08830    1.000
    O2       O        0.29160    0.70160    0.25780    1.000
    O3       O        0.16150    0.42480    0.38120    1.000
    O4       O        0.47130    0.32410    0.28250    1.000
    O5       O        0.08060    0.11280    0.98190    1.000
    O6       O        0.37780    0.00830    0.85750    1.000
    O7       O        0.16180    0.34600    0.77300    1.000
    O8       O        0.19880    0.58820    0.77140    1.000
    O9       O        0.72840    0.17490    0.91170    1.000
    O10      O        0.70840    0.29840    0.74220    1.000
    O11      O        0.83850    0.57520    0.61880    1.000
    O12      O        0.52870    0.67590    0.71750    1.000
    O13      O        0.91940    0.88720    0.01810    1.000
    O14      O        0.62220    0.99170    0.14250    1.000
    O15      O        0.83820    0.65400    0.22700    1.000
    O16      O        0.80120    0.41180    0.22860    1.000
