# CIF file generated by openbabel 3.1.0, see https://openbabel.org
data_I
_chemical_name_common 'image0'
_cell_length_a 9.8383
_cell_length_b 13.1984
_cell_length_c 11.3829
_cell_angle_alpha 90
_cell_angle_beta 101.437
_cell_angle_gamma 90
_space_group_name_H-M_alt 'P 1'
_space_group_name_Hall 'P 1'
loop_
    _symmetry_equiv_pos_as_xyz
    x,y,z
loop_
    _atom_site_label
    _atom_site_type_symbol
    _atom_site_fract_x
    _atom_site_fract_y
    _atom_site_fract_z
    _atom_site_occupancy
    Cd1      Cd       0.25809    0.99503    0.49313    1.000
    O1       O        0.41820    0.88100    0.58610    1.000
    O2       O        0.62030    0.95990    0.65490    1.000
    N1       N        0.66580    0.63240    0.88160    1.000
    C1       C        0.53700    0.88760    0.64960    1.000
    C2       C        0.58210    0.79770    0.73160    1.000
    C3       C        0.55840    0.69940    0.69020    1.000
    H1       H        0.51250    0.68690    0.60990    1.000
    C4       C        0.64840    0.81160    0.85110    1.000
    H2       H        0.66670    0.87790    0.88270    1.000
    C5       C        0.60270    0.61920    0.76740    1.000
    H3       H        0.58750    0.55200    0.73780    1.000
    C6       C        0.68690    0.72780    0.92240    1.000
    H4       H        0.73020    0.73800    0.00380    1.000
    O3       O        0.09890    0.10330    0.38950    1.000
    O4       O        0.88190    0.04290    0.37060    1.000
    C7       C        0.97060    0.10520    0.34970    1.000
    C8       C        0.91880    0.19200    0.26570    1.000
    C9       C        0.01120    0.25250    0.21900    1.000
    H5       H        0.10790    0.23890    0.23760    1.000
    C10      C        0.77860    0.21440    0.23470    1.000
    H6       H        0.71240    0.17370    0.26320    1.000
    C11      C        0.96030    0.33270    0.14520    1.000
    H7       H        0.02360    0.37300    0.11230    1.000
    C12      C        0.73660    0.29670    0.16190    1.000
    H8       H        0.64050    0.31220    0.14200    1.000
    N2       N        0.82480    0.35560    0.11810    1.000
    Cd2      Cd       0.74191    0.49503    0.00687    1.000
    O5       O        0.58180    0.38100    0.91390    1.000
    O6       O        0.37970    0.45990    0.84510    1.000
    N3       N        0.33420    0.13240    0.61840    1.000
    C13      C        0.46300    0.38760    0.85040    1.000
    C14      C        0.41790    0.29770    0.76840    1.000
    C15      C        0.44160    0.19940    0.80980    1.000
    H9       H        0.48750    0.18690    0.89010    1.000
    C16      C        0.35160    0.31160    0.64890    1.000
    H10      H        0.33330    0.37790    0.61730    1.000
    C17      C        0.39730    0.11920    0.73260    1.000
    H11      H        0.41250    0.05200    0.76220    1.000
    C18      C        0.31310    0.22780    0.57760    1.000
    H12      H        0.26980    0.23800    0.49620    1.000
    O7       O        0.90110    0.60330    0.11050    1.000
    O8       O        0.11810    0.54290    0.12940    1.000
    C19      C        0.02940    0.60520    0.15030    1.000
    C20      C        0.08120    0.69200    0.23430    1.000
    C21      C        0.98880    0.75250    0.28100    1.000
    H13      H        0.89210    0.73890    0.26240    1.000
    C22      C        0.22140    0.71440    0.26530    1.000
    H14      H        0.28760    0.67370    0.23680    1.000
    C23      C        0.03970    0.83270    0.35480    1.000
    H15      H        0.97640    0.87300    0.38770    1.000
    C24      C        0.26340    0.79670    0.33810    1.000
    H16      H        0.35950    0.81220    0.35800    1.000
    N4       N        0.17520    0.85560    0.38190    1.000
    Cd3      Cd       0.74191    0.00497    0.50687    1.000
    O9       O        0.58180    0.11900    0.41390    1.000
    O10      O        0.37970    0.04010    0.34510    1.000
    N5       N        0.33420    0.36760    0.11840    1.000
    C25      C        0.46300    0.11240    0.35040    1.000
    C26      C        0.41790    0.20230    0.26840    1.000
    C27      C        0.44160    0.30060    0.30980    1.000
    H17      H        0.48750    0.31310    0.39010    1.000
    C28      C        0.35160    0.18840    0.14890    1.000
    H18      H        0.33330    0.12210    0.11730    1.000
    C29      C        0.39730    0.38080    0.23260    1.000
    H19      H        0.41250    0.44800    0.26220    1.000
    C30      C        0.31310    0.27220    0.07760    1.000
    H20      H        0.26980    0.26200    0.99620    1.000
    O11      O        0.90110    0.89670    0.61050    1.000
    O12      O        0.11810    0.95710    0.62940    1.000
    C31      C        0.02940    0.89480    0.65030    1.000
    C32      C        0.08120    0.80800    0.73430    1.000
    C33      C        0.98880    0.74750    0.78100    1.000
    H21      H        0.89210    0.76110    0.76240    1.000
    C34      C        0.22140    0.78560    0.76530    1.000
    H22      H        0.28760    0.82630    0.73680    1.000
    C35      C        0.03970    0.66730    0.85480    1.000
    H23      H        0.97640    0.62700    0.88770    1.000
    C36      C        0.26340    0.70330    0.83810    1.000
    H24      H        0.35950    0.68780    0.85800    1.000
    N6       N        0.17520    0.64440    0.88190    1.000
    Cd4      Cd       0.25809    0.50497    0.99313    1.000
    O13      O        0.41820    0.61900    0.08610    1.000
    O14      O        0.62030    0.54010    0.15490    1.000
    N7       N        0.66580    0.86760    0.38160    1.000
    C37      C        0.53700    0.61240    0.14960    1.000
    C38      C        0.58210    0.70230    0.23160    1.000
    C39      C        0.55840    0.80060    0.19020    1.000
    H25      H        0.51250    0.81310    0.10990    1.000
    C40      C        0.64840    0.68840    0.35110    1.000
    H26      H        0.66670    0.62210    0.38270    1.000
    C41      C        0.60270    0.88080    0.26740    1.000
    H27      H        0.58750    0.94800    0.23780    1.000
    C42      C        0.68690    0.77220    0.42240    1.000
    H28      H        0.73020    0.76200    0.50380    1.000
    O15      O        0.09890    0.39670    0.88950    1.000
    O16      O        0.88190    0.45710    0.87060    1.000
    C43      C        0.97060    0.39480    0.84970    1.000
    C44      C        0.91880    0.30800    0.76570    1.000
    C45      C        0.01120    0.24750    0.71900    1.000
    H29      H        0.10790    0.26110    0.73760    1.000
    C46      C        0.77860    0.28560    0.73470    1.000
    H30      H        0.71240    0.32630    0.76320    1.000
    C47      C        0.96030    0.16730    0.64520    1.000
    H31      H        0.02360    0.12700    0.61230    1.000
    C48      C        0.73660    0.20330    0.66190    1.000
    H32      H        0.64050    0.18780    0.64200    1.000
    N8       N        0.82480    0.14440    0.61810    1.000
