# CIF file generated by openbabel 3.1.0, see https://openbabel.org
data_I
_chemical_name_common 'image0'
_cell_length_a 15.89
_cell_length_b 18.596
_cell_length_c 28.5
_cell_angle_alpha 101.979
_cell_angle_beta 94.414
_cell_angle_gamma 108.931
_space_group_name_H-M_alt 'P 1'
_space_group_name_Hall 'P 1'
loop_
    _symmetry_equiv_pos_as_xyz
    x,y,z
loop_
    _atom_site_label
    _atom_site_type_symbol
    _atom_site_fract_x
    _atom_site_fract_y
    _atom_site_fract_z
    _atom_site_occupancy
    Cd1      Cd       0.38683    0.14532    0.23916    1.000
    Cd2      Cd       0.04015    0.35104    0.26962    1.000
    C1       C        0.89860    0.09630    0.21380    1.000
    C2       C        0.81610    0.08440    0.18770    1.000
    H1       H        0.79830    0.12710    0.18680    1.000
    C3       C        0.75910    0.00890    0.16260    1.000
    H2       H        0.70570    0.00230    0.14350    1.000
    C4       C        0.78160    0.94400    0.16600    1.000
    C5       C        0.85820    0.95650    0.19690    1.000
    H3       H        0.87080    0.91340    0.20270    1.000
    C6       C        0.91800    0.03130    0.21990    1.000
    H4       H        0.97090    0.03760    0.23930    1.000
    C7       C        0.72910    0.86580    0.13310    1.000
    C8       C        0.71090    0.85920    0.08380    1.000
    H5       H        0.72640    0.90520    0.07330    1.000
    C9       C        0.67230    0.79060    0.04990    1.000
    C10      C        0.64820    0.71770    0.06470    1.000
    C11      C        0.66520    0.72080    0.11430    1.000
    C12      C        0.70580    0.79370    0.14700    1.000
    C13      C        0.66080    0.79100    0.99680    1.000
    C14      C        0.61920    0.83860    0.98260    1.000
    H6       H        0.59050    0.86390    0.00400    1.000
    C15      C        0.62060    0.84820    0.93560    1.000
    H7       H        0.59250    0.88060    0.92580    1.000
    C16      C        0.66120    0.81220    0.90410    1.000
    C17      C        0.70400    0.76500    0.91790    1.000
    H8       H        0.73260    0.74070    0.89590    1.000
    C18      C        0.70530    0.75220    0.96620    1.000
    H9       H        0.73390    0.72040    0.97620    1.000
    C19      C        0.66700    0.82000    0.85300    1.000
    C20      C        0.64930    0.58980    0.02390    1.000
    H10      H        0.65710    0.57640    0.99050    1.000
    H11      H        0.61190    0.54380    0.03240    1.000
    H12      H        0.70700    0.61020    0.04430    1.000
    C21      C        0.65930    0.81220    0.22300    1.000
    H13      H        0.67440    0.81210    0.25630    1.000
    H14      H        0.60120    0.77310    0.20970    1.000
    H15      H        0.65790    0.86290    0.22130    1.000
    C22      C        0.42240    0.61770    0.09310    1.000
    H16      H        0.38050    0.64480    0.09180    1.000
    H17      H        0.39120    0.56530    0.09570    1.000
    H18      H        0.44930    0.61560    0.06410    1.000
    C23      C        0.63720    0.64840    0.13360    1.000
    C24      C        0.55060    0.61890    0.14360    1.000
    C25      C        0.52410    0.55530    0.16410    1.000
    C26      C        0.58950    0.51910    0.17350    1.000
    H19      H        0.57250    0.47450    0.18550    1.000
    C27      C        0.67680    0.54970    0.16480    1.000
    C28      C        0.70070    0.61410    0.14520    1.000
    C29      C        0.43280    0.52330    0.17790    1.000
    C30      C        0.38520    0.44300    0.16450    1.000
    H20      H        0.40630    0.41030    0.14310    1.000
    C31      C        0.30700    0.41080    0.18260    1.000
    H21      H        0.27650    0.35690    0.17350    1.000
    C32      C        0.39930    0.57190    0.20840    1.000
    H22      H        0.42850    0.62590    0.21500    1.000
    C33      C        0.32480    0.54300    0.22910    1.000
    H23      H        0.30660    0.57600    0.25200    1.000
    C34      C        0.27410    0.45830    0.21410    1.000
    C35      C        0.20010    0.42800    0.23860    1.000
    C36      C        0.74090    0.51120    0.18080    1.000
    C37      C        0.74210    0.49380    0.22410    1.000
    H24      H        0.70020    0.50290    0.24340    1.000
    C38      C        0.80040    0.46420    0.24060    1.000
    H25      H        0.79870    0.45410    0.27120    1.000
    C39      C        0.86560    0.44750    0.21290    1.000
    C40      C        0.86110    0.46270    0.16780    1.000
    H26      H        0.90060    0.45090    0.14760    1.000
    C41      C        0.80220    0.49390    0.15140    1.000
    H27      H        0.80220    0.50380    0.12070    1.000
    C42      C        0.93450    0.41100    0.22970    1.000
    C43      C        0.22790    0.06680    0.26840    1.000
    C44      C        0.11260    0.08610    0.32060    1.000
    H28      H        0.14100    0.14030    0.32880    1.000
    C45      C        0.03940    0.05480    0.33920    1.000
    H29      H        0.01850    0.08760    0.36060    1.000
    C46      C        0.99220    0.97250    0.32740    1.000
    C47      C        0.02780    0.92640    0.29830    1.000
    H30      H        0.00000    0.87220    0.29170    1.000
    C48      C        0.10170    0.95590    0.27880    1.000
    H31      H        0.12350    0.92230    0.25850    1.000
    C49      C        0.90370    0.94230    0.34390    1.000
    C50      C        0.84130    0.97830    0.33610    1.000
    H32      H        0.85920    0.02130    0.32270    1.000
    C51      C        0.75150    0.95400    0.34740    1.000
    C52      C        0.72690    0.88650    0.36690    1.000
    C53      C        0.79020    0.85060    0.37490    1.000
    C54      C        0.87220    0.87630    0.36400    1.000
    C55      C        0.01340    0.87980    0.40720    1.000
    H33      H        0.06400    0.86830    0.39580    1.000
    H34      H        0.00440    0.86480    0.43720    1.000
    H35      H        0.02470    0.93500    0.41230    1.000
    C56      C        0.69300    0.99270    0.33260    1.000
    C57      C        0.68950    0.00950    0.28620    1.000
    H36      H        0.72710    0.99560    0.26550    1.000
    C58      C        0.63360    0.04490    0.27080    1.000
    H37      H        0.63630    0.05620    0.24060    1.000
    C59      C        0.57150    0.06500    0.29910    1.000
    C60      C        0.57530    0.04960    0.34840    1.000
    H38      H        0.53920    0.06470    0.36980    1.000
    C61      C        0.63230    0.01300    0.36200    1.000
    H39      H        0.63090    0.00100    0.39210    1.000
    C62      C        0.74170    0.68950    0.28070    1.000
    H40      H        0.71440    0.68010    0.24780    1.000
    H41      H        0.75500    0.64430    0.28510    1.000
    H42      H        0.79640    0.73420    0.28780    1.000
    C63      C        0.80430    0.89990    0.49500    1.000
    H43      H        0.83770    0.95190    0.49270    1.000
    H44      H        0.80570    0.89870    0.52860    1.000
    H45      H        0.74310    0.88490    0.47990    1.000
    C64      C        0.75750    0.77530    0.39440    1.000
    C65      C        0.70520    0.70590    0.36270    1.000
    C66      C        0.68220    0.63480    0.37560    1.000
    C67      C        0.70970    0.63660    0.42410    1.000
    H46      H        0.69400    0.59060    0.43470    1.000
    C68      C        0.76070    0.70810    0.45610    1.000
    C69      C        0.79040    0.77840    0.43950    1.000
    C70      C        0.79040    0.70540    0.50670    1.000
    C71      C        0.74990    0.73460    0.54380    1.000
    H47      H        0.70940    0.75930    0.53750    1.000
    C72      C        0.76970    0.72700    0.59040    1.000
    H48      H        0.73950    0.74460    0.61440    1.000
    C73      C        0.82920    0.69580    0.60200    1.000
    C74      C        0.87240    0.67460    0.56760    1.000
    H49      H        0.92180    0.66100    0.57630    1.000
    C75      C        0.84880    0.67080    0.51700    1.000
    H50      H        0.87300    0.64560    0.49280    1.000
    C76      C        0.85460    0.69130    0.65540    1.000
    C77      C        0.62090    0.55820    0.34380    1.000
    C78      C        0.54230    0.55060    0.31680    1.000
    H51      H        0.53110    0.59550    0.31350    1.000
    C79      C        0.47780    0.47690    0.29370    1.000
    H52      H        0.42240    0.47320    0.27810    1.000
    C80      C        0.49690    0.40990    0.29430    1.000
    C81      C        0.58270    0.41740    0.31730    1.000
    H53      H        0.59870    0.37310    0.31490    1.000
    C82      C        0.64130    0.48770    0.34250    1.000
    H54      H        0.69550    0.49090    0.35930    1.000
    C83      C        0.42740    0.32480    0.27030    1.000
    C84      C        0.51010    0.09800    0.28180    1.000
    O1       O        0.93760    0.41030    0.27480    1.000
    O2       O        0.97440    0.38610    0.20050    1.000
    O3       O        0.16530    0.46740    0.26630    1.000
    O4       O        0.16170    0.34840    0.22810    1.000
    O5       O        0.25660    0.14930    0.27180    1.000
    O6       O        0.27060    0.03250    0.24630    1.000
    O7       O        0.70370    0.78950    0.82470    1.000
    O8       O        0.62320    0.86900    0.84040    1.000
    O9       O        0.34590    0.32180    0.26470    1.000
    O10      O        0.45020    0.27200    0.26260    1.000
    O11      O        0.50040    0.09840    0.23880    1.000
    O12      O        0.45830    0.12340    0.30820    1.000
    O13      O        0.91430    0.66170    0.65880    1.000
    O14      O        0.81130    0.71360    0.68420    1.000
    O15      O        0.49070    0.65820    0.13430    1.000
    O16      O        0.78570    0.64530    0.13340    1.000
    O17      O        0.60660    0.64900    0.03080    1.000
    O18      O        0.72630    0.79490    0.19550    1.000
    O19      O        0.68070    0.70460    0.31300    1.000
    O20      O        0.84300    0.84760    0.47170    1.000
    O21      O        0.64250    0.85980    0.37890    1.000
    O22      O        0.93210    0.83580    0.37080    1.000
    O23      O        0.92940    0.23570    0.23910    1.000
    C85      C        0.95730    0.17890    0.23500    1.000
    O24      O        0.04520    0.19200    0.24620    1.000
    C86      C        0.56690    0.82020    0.34020    1.000
    H55      H        0.51170    0.81340    0.35340    1.000
    H56      H        0.56880    0.76990    0.32470    1.000
    H57      H        0.56980    0.85110    0.31690    1.000
    C87      C        0.85380    0.69170    0.17620    1.000
    H58      H        0.91130    0.71210    0.16610    1.000
    H59      H        0.85740    0.65900    0.19770    1.000
    H60      H        0.83710    0.73440    0.19270    1.000
    C88      C        0.14750    0.03980    0.28920    1.000
    Pr1      Pr       0.80535    0.77110    0.76876    1.000
    Cd3      Cd       0.61317    0.85468    0.76084    1.000
    Cd4      Cd       0.95985    0.64896    0.73038    1.000
    C89      C        0.10140    0.90370    0.78620    1.000
    C90      C        0.18390    0.91560    0.81230    1.000
    H61      H        0.20170    0.87290    0.81320    1.000
    C91      C        0.24090    0.99110    0.83740    1.000
    H62      H        0.29430    0.99770    0.85650    1.000
    C92      C        0.21840    0.05600    0.83400    1.000
    C93      C        0.14180    0.04350    0.80310    1.000
    H63      H        0.12920    0.08660    0.79730    1.000
    C94      C        0.08200    0.96870    0.78010    1.000
    H64      H        0.02910    0.96240    0.76070    1.000
    C95      C        0.27090    0.13420    0.86690    1.000
    C96      C        0.28910    0.14080    0.91620    1.000
    H65      H        0.27360    0.09480    0.92670    1.000
    C97      C        0.32770    0.20940    0.95010    1.000
    C98      C        0.35180    0.28230    0.93530    1.000
    C99      C        0.33480    0.27920    0.88570    1.000
    C100     C        0.29420    0.20630    0.85300    1.000
    C101     C        0.33920    0.20900    0.00320    1.000
    C102     C        0.38080    0.16140    0.01740    1.000
    H66      H        0.40950    0.13610    0.99600    1.000
    C103     C        0.37940    0.15180    0.06440    1.000
    H67      H        0.40750    0.11940    0.07420    1.000
    C104     C        0.33880    0.18780    0.09590    1.000
    C105     C        0.29600    0.23500    0.08210    1.000
    H68      H        0.26740    0.25930    0.10410    1.000
    C106     C        0.29470    0.24780    0.03380    1.000
    H69      H        0.26610    0.27960    0.02380    1.000
    C107     C        0.33300    0.18000    0.14700    1.000
    C108     C        0.35070    0.41020    0.97610    1.000
    H70      H        0.34290    0.42360    0.00950    1.000
    H71      H        0.38810    0.45620    0.96760    1.000
    H72      H        0.29300    0.38980    0.95570    1.000
    C109     C        0.34070    0.18780    0.77700    1.000
    H73      H        0.32560    0.18790    0.74370    1.000
    H74      H        0.39880    0.22690    0.79030    1.000
    H75      H        0.34210    0.13710    0.77870    1.000
    C110     C        0.57760    0.38230    0.90690    1.000
    H76      H        0.61950    0.35520    0.90820    1.000
    H77      H        0.60880    0.43470    0.90430    1.000
    H78      H        0.55070    0.38440    0.93590    1.000
    C111     C        0.36280    0.35160    0.86640    1.000
    C112     C        0.44940    0.38110    0.85640    1.000
    C113     C        0.47590    0.44470    0.83590    1.000
    C114     C        0.41050    0.48090    0.82650    1.000
    H79      H        0.42750    0.52550    0.81450    1.000
    C115     C        0.32320    0.45030    0.83520    1.000
    C116     C        0.29930    0.38590    0.85480    1.000
    C117     C        0.56720    0.47670    0.82210    1.000
    C118     C        0.61480    0.55700    0.83550    1.000
    H80      H        0.59370    0.58970    0.85690    1.000
    C119     C        0.69300    0.58920    0.81740    1.000
    H81      H        0.72350    0.64310    0.82650    1.000
    C120     C        0.60070    0.42810    0.79160    1.000
    H82      H        0.57150    0.37410    0.78500    1.000
    C121     C        0.67520    0.45700    0.77090    1.000
    H83      H        0.69340    0.42400    0.74800    1.000
    C122     C        0.72590    0.54170    0.78590    1.000
    C123     C        0.79990    0.57200    0.76140    1.000
    C124     C        0.25910    0.48880    0.81920    1.000
    C125     C        0.25790    0.50620    0.77590    1.000
    H84      H        0.29980    0.49710    0.75660    1.000
    C126     C        0.19960    0.53580    0.75940    1.000
    H85      H        0.20130    0.54590    0.72880    1.000
    C127     C        0.13440    0.55250    0.78710    1.000
    C128     C        0.13890    0.53730    0.83220    1.000
    H86      H        0.09940    0.54910    0.85240    1.000
    C129     C        0.19780    0.50610    0.84860    1.000
    H87      H        0.19780    0.49620    0.87930    1.000
    C130     C        0.06550    0.58900    0.77030    1.000
    C131     C        0.77210    0.93320    0.73160    1.000
    C132     C        0.88740    0.91390    0.67940    1.000
    H88      H        0.85900    0.85970    0.67120    1.000
    C133     C        0.96060    0.94520    0.66080    1.000
    H89      H        0.98150    0.91240    0.63940    1.000
    C134     C        0.00780    0.02750    0.67260    1.000
    C135     C        0.97220    0.07360    0.70170    1.000
    H90      H        0.00000    0.12780    0.70830    1.000
    C136     C        0.89830    0.04410    0.72120    1.000
    H91      H        0.87650    0.07770    0.74150    1.000
    C137     C        0.09630    0.05770    0.65610    1.000
    C138     C        0.15870    0.02170    0.66390    1.000
    H92      H        0.14080    0.97870    0.67730    1.000
    C139     C        0.24850    0.04600    0.65260    1.000
    C140     C        0.27310    0.11350    0.63310    1.000
    C141     C        0.20980    0.14940    0.62510    1.000
    C142     C        0.12780    0.12370    0.63600    1.000
    C143     C        0.98660    0.12020    0.59280    1.000
    H93      H        0.93600    0.13170    0.60420    1.000
    H94      H        0.99560    0.13520    0.56280    1.000
    H95      H        0.97530    0.06500    0.58770    1.000
    C144     C        0.30700    0.00730    0.66740    1.000
    C145     C        0.31050    0.99050    0.71380    1.000
    H96      H        0.27290    0.00440    0.73450    1.000
    C146     C        0.36640    0.95510    0.72920    1.000
    H97      H        0.36370    0.94380    0.75940    1.000
    C147     C        0.42850    0.93500    0.70090    1.000
    C148     C        0.42470    0.95040    0.65160    1.000
    H98      H        0.46080    0.93530    0.63020    1.000
    C149     C        0.36770    0.98700    0.63800    1.000
    H99      H        0.36910    0.99900    0.60790    1.000
    C150     C        0.25830    0.31050    0.71930    1.000
    H100     H        0.28560    0.31990    0.75220    1.000
    H101     H        0.24500    0.35570    0.71490    1.000
    H102     H        0.20360    0.26580    0.71220    1.000
    C151     C        0.19570    0.10010    0.50500    1.000
    H103     H        0.16230    0.04810    0.50730    1.000
    H104     H        0.19430    0.10130    0.47140    1.000
    H105     H        0.25690    0.11510    0.52010    1.000
    C152     C        0.24250    0.22470    0.60560    1.000
    C153     C        0.29480    0.29410    0.63730    1.000
    C154     C        0.31780    0.36520    0.62440    1.000
    C155     C        0.29030    0.36340    0.57590    1.000
    H106     H        0.30600    0.40940    0.56530    1.000
    C156     C        0.23930    0.29190    0.54390    1.000
    C157     C        0.20960    0.22160    0.56050    1.000
    C158     C        0.20960    0.29460    0.49330    1.000
    C159     C        0.25010    0.26540    0.45620    1.000
    H107     H        0.29060    0.24070    0.46250    1.000
    C160     C        0.23030    0.27300    0.40960    1.000
    H108     H        0.26050    0.25540    0.38560    1.000
    C161     C        0.17080    0.30420    0.39800    1.000
    C162     C        0.12760    0.32540    0.43240    1.000
    H109     H        0.07820    0.33900    0.42370    1.000
    C163     C        0.15120    0.32920    0.48300    1.000
    H110     H        0.12700    0.35440    0.50720    1.000
    C164     C        0.14540    0.30870    0.34460    1.000
    C165     C        0.37910    0.44180    0.65620    1.000
    C166     C        0.45770    0.44940    0.68320    1.000
    H111     H        0.46890    0.40450    0.68650    1.000
    C167     C        0.52220    0.52310    0.70630    1.000
    H112     H        0.57760    0.52680    0.72190    1.000
    C168     C        0.50310    0.59010    0.70570    1.000
    C169     C        0.41730    0.58260    0.68270    1.000
    H113     H        0.40130    0.62690    0.68510    1.000
    C170     C        0.35870    0.51230    0.65750    1.000
    H114     H        0.30450    0.50910    0.64070    1.000
    C171     C        0.57260    0.67520    0.72970    1.000
    C172     C        0.48990    0.90200    0.71820    1.000
    O25      O        0.06240    0.58970    0.72520    1.000
    O26      O        0.02560    0.61390    0.79950    1.000
    O27      O        0.83470    0.53260    0.73370    1.000
    O28      O        0.83830    0.65160    0.77190    1.000
    O29      O        0.74340    0.85070    0.72820    1.000
    O30      O        0.72940    0.96750    0.75370    1.000
    O31      O        0.29630    0.21050    0.17530    1.000
    O32      O        0.37680    0.13100    0.15960    1.000
    O33      O        0.65410    0.67820    0.73530    1.000
    O34      O        0.54980    0.72800    0.73740    1.000
    O35      O        0.49960    0.90160    0.76120    1.000
    O36      O        0.54170    0.87660    0.69180    1.000
    O37      O        0.08570    0.33830    0.34120    1.000
    O38      O        0.18870    0.28640    0.31580    1.000
    O39      O        0.50930    0.34180    0.86570    1.000
    O40      O        0.21430    0.35470    0.86660    1.000
    O41      O        0.39340    0.35100    0.96920    1.000
    O42      O        0.27370    0.20510    0.80450    1.000
    O43      O        0.31930    0.29540    0.68700    1.000
    O44      O        0.15700    0.15240    0.52830    1.000
    O45      O        0.35750    0.14020    0.62110    1.000
    O46      O        0.06790    0.16420    0.62920    1.000
    O47      O        0.07060    0.76430    0.76090    1.000
    C173     C        0.04270    0.82110    0.76500    1.000
    O48      O        0.95480    0.80800    0.75380    1.000
    C174     C        0.43310    0.17980    0.65980    1.000
    H115     H        0.48830    0.18660    0.64660    1.000
    H116     H        0.43120    0.23010    0.67530    1.000
    H117     H        0.43020    0.14890    0.68310    1.000
    C175     C        0.14620    0.30830    0.82380    1.000
    H118     H        0.08870    0.28790    0.83390    1.000
    H119     H        0.14260    0.34100    0.80230    1.000
    H120     H        0.16290    0.26560    0.80730    1.000
    C176     C        0.85250    0.96020    0.71080    1.000
