# CIF file generated by openbabel 3.1.0, see https://openbabel.org
data_I
_chemical_name_common 'image0'
_cell_length_a 27.019
_cell_length_b 38.427
_cell_length_c 38.738
_cell_angle_alpha 90
_cell_angle_beta 90
_cell_angle_gamma 90
_space_group_name_H-M_alt 'P 1'
_space_group_name_Hall 'P 1'
loop_
    _symmetry_equiv_pos_as_xyz
    x,y,z
loop_
    _atom_site_label
    _atom_site_type_symbol
    _atom_site_fract_x
    _atom_site_fract_y
    _atom_site_fract_z
    _atom_site_occupancy
    W1       W        0.82488    0.56810    0.35524    1.000
    W2       W        0.72723    0.51528    0.35717    1.000
    W3       W        0.65749    0.59545    0.32578    1.000
    W4       W        0.75496    0.64861    0.32468    1.000
    W5       W        0.68785    0.72590    0.36110    1.000
    W6       W        0.58793    0.67689    0.35011    1.000
    W7       W        0.57684    0.59941    0.40347    1.000
    W8       W        0.79523    0.68733    0.40600    1.000
    W9       W        0.86219    0.60894    0.43827    1.000
    W10      W        0.64578    0.51982    0.43208    1.000
    W11      W        0.76216    0.46883    0.43916    1.000
    W12      W        0.86711    0.51487    0.43160    1.000
    W13      W        0.86678    0.51374    0.52991    1.000
    W14      W        0.76210    0.46907    0.53726    1.000
    W15      W        0.64611    0.51680    0.52878    1.000
    W16      W        0.85988    0.61010    0.53499    1.000
    W17      W        0.78934    0.68908    0.56274    1.000
    W18      W        0.57795    0.59565    0.55938    1.000
    W19      W        0.53394    0.64641    0.48320    1.000
    W20      W        0.75047    0.73702    0.48331    1.000
    W21      W        0.64392    0.77522    0.43990    1.000
    W22      W        0.54336    0.72609    0.42978    1.000
    W23      W        0.53762    0.73038    0.52662    1.000
    W24      W        0.64644    0.77093    0.53609    1.000
    W25      W        0.68549    0.71940    0.61479    1.000
    W26      W        0.57601    0.67968    0.60633    1.000
    W27      W        0.64424    0.60238    0.64112    1.000
    W28      W        0.75533    0.63958    0.64126    1.000
    W29      W        0.82493    0.55983    0.61039    1.000
    W30      W        0.71419    0.52232    0.61169    1.000
    Co1      Co       0.45828    0.54628    0.57617    1.000
    Co2      Co       0.41130    0.76256    0.41929    1.000
    Co3      Co       0.72281    0.80431    0.30688    1.000
    Co4      Co       0.92176    0.67644    0.14097    1.000
    K1       K        0.75830    0.64393    0.48481    1.000
    P1       P        0.68490    0.64493    0.39720    1.000
    P2       P        0.75920    0.55878    0.43110    1.000
    P3       P        0.75590    0.55854    0.53640    1.000
    P4       P        0.68090    0.64442    0.56920    1.000
    P5       P        0.63620    0.69803    0.48300    1.000
    O1       O        0.70760    0.62200    0.30010    1.000
    O2       O        0.69680    0.55680    0.33070    1.000
    O3       O        0.79130    0.60180    0.33240    1.000
    O4       O        0.78630    0.52970    0.33500    1.000
    O5       O        0.85440    0.52780    0.38860    1.000
    O6       O        0.75510    0.48490    0.38770    1.000
    O7       O        0.67060    0.52060    0.38610    1.000
    O8       O        0.76060    0.55830    0.39050    1.000
    O9       O        0.85060    0.59720    0.38980    1.000
    O10      O        0.79330    0.66250    0.36400    1.000
    O11      O        0.70320    0.62560    0.36470    1.000
    O12      O        0.61320    0.58710    0.36070    1.000
    O13      O        0.62110    0.64420    0.32570    1.000
    O14      O        0.71790    0.68850    0.32810    1.000
    O15      O        0.71090    0.75920    0.33510    1.000
    O16      O        0.62770    0.71580    0.33650    1.000
    O17      O        0.56560    0.64330    0.38270    1.000
    O18      O        0.65760    0.67880    0.38490    1.000
    O19      O        0.74480    0.71640    0.38590    1.000
    O20      O        0.73000    0.65510    0.41940    1.000
    O21      O        0.64950    0.62270    0.41950    1.000
    O22      O        0.60910    0.56050    0.42800    1.000
    O23      O        0.82690    0.65250    0.43230    1.000
    O24      O        0.78470    0.59070    0.44510    1.000
    O25      O        0.70540    0.55640    0.44320    1.000
    O26      O        0.60040    0.48910    0.42310    1.000
    O27      O        0.69710    0.48630    0.44170    1.000
    O28      O        0.78660    0.52460    0.44200    1.000
    O29      O        0.87810    0.56090    0.44430    1.000
    O30      O        0.83330    0.47030    0.42890    1.000
    O31      O        0.77100    0.46520    0.48590    1.000
    O32      O        0.86790    0.50630    0.48390    1.000
    O33      O        0.85750    0.61840    0.48490    1.000
    O34      O        0.63700    0.52240    0.48040    1.000
    O35      O        0.55540    0.61500    0.44720    1.000
    O36      O        0.77790    0.70730    0.44940    1.000
    O37      O        0.65920    0.75170    0.39340    1.000
    O38      O        0.56320    0.71080    0.38750    1.000
    O39      O        0.48490    0.74170    0.41590    1.000
    O40      O        0.57560    0.77180    0.42500    1.000
    O41      O        0.70930    0.75800    0.44920    1.000
    O42      O        0.61840    0.71960    0.44980    1.000
    O43      O        0.52750    0.68130    0.44950    1.000
    O44      O        0.61290    0.66230    0.48250    1.000
    O45      O        0.69420    0.69600    0.48340    1.000
    O46      O        0.77810    0.70690    0.51800    1.000
    O47      O        0.55840    0.61530    0.51600    1.000
    O48      O        0.52010    0.57550    0.56750    1.000
    O49      O        0.64730    0.62160    0.54680    1.000
    O50      O        0.72500    0.65650    0.54840    1.000
    O51      O        0.84140    0.71500    0.57220    1.000
    O52      O        0.82360    0.65260    0.53790    1.000
    O53      O        0.60630    0.56010    0.53340    1.000
    O54      O        0.70410    0.55660    0.52120    1.000
    O55      O        0.78160    0.59150    0.52310    1.000
    O56      O        0.87400    0.56200    0.52570    1.000
    O57      O        0.78510    0.52580    0.52440    1.000
    O58      O        0.69570    0.48400    0.52080    1.000
    O59      O        0.83160    0.47090    0.54150    1.000
    O60      O        0.85030    0.52770    0.57960    1.000
    O61      O        0.74790    0.48690    0.57880    1.000
    O62      O        0.66450    0.52020    0.57740    1.000
    O63      O        0.75370    0.55820    0.57760    1.000
    O64      O        0.84660    0.59610    0.57990    1.000
    O65      O        0.78820    0.66160    0.60410    1.000
    O66      O        0.69680    0.62490    0.60200    1.000
    O67      O        0.61070    0.58400    0.60320    1.000
    O68      O        0.56370    0.64020    0.57890    1.000
    O69      O        0.65170    0.67670    0.58030    1.000
    O70      O        0.74000    0.71730    0.58310    1.000
    O71      O        0.70930    0.75810    0.51630    1.000
    O72      O        0.61940    0.71840    0.51430    1.000
    O73      O        0.52560    0.68150    0.51660    1.000
    O74      O        0.53450    0.74120    0.48290    1.000
    O75      O        0.63400    0.78320    0.48560    1.000
    O76      O        0.57510    0.77040    0.54250    1.000
    O77      O        0.55720    0.71020    0.57370    1.000
    O78      O        0.65640    0.74940    0.57800    1.000
    O79      O        0.61780    0.71250    0.63080    1.000
    O80      O        0.61080    0.64220    0.63830    1.000
    O81      O        0.71370    0.68430    0.64150    1.000
    O82      O        0.69950    0.62130    0.66800    1.000
    O83      O        0.68820    0.55990    0.63470    1.000
    O84      O        0.78660    0.59710    0.63510    1.000
    O85      O        0.77750    0.52820    0.63230    1.000
    N1       N        0.34730    0.56940    0.39300    1.000
    H1       H        0.35710    0.55050    0.38730    1.000
    N2       N        0.30990    0.58210    0.37420    1.000
    N3       N        0.34130    0.70660    0.44710    1.000
    H2       H        0.33050    0.72180    0.46150    1.000
    N4       N        0.38210    0.71290    0.42660    1.000
    N5       N        0.44410    0.81180    0.40890    1.000
    N6       N        0.48790    0.81940    0.42780    1.000
    H3       H        0.49850    0.80840    0.44560    1.000
    C1       C        0.51110    0.84850    0.41200    1.000
    C2       C        0.48170    0.85880    0.38340    1.000
    C3       C        0.44030    0.83610    0.38150    1.000
    N7       N        0.68750    0.74160    0.26610    1.000
    H4       H        0.70700    0.72970    0.27900    1.000
    N8       N        0.67830    0.77670    0.26970    1.000
    N9       N        0.93500    0.55580    0.97820    1.000
    N10      N        0.89060    0.57030    0.97320    1.000
    H5       H        0.86920    0.56270    0.95860    1.000
    N11      N        0.94000    0.64950    0.09590    1.000
    N12      N        0.97280    0.66290    0.07350    1.000
    H6       H        0.99100    0.68030    0.07920    1.000
    N13      N        0.93410    0.73740    0.19190    1.000
    H7       H        0.96240    0.74160    0.18250    1.000
    N14      N        0.90490    0.70680    0.18490    1.000
    N15      N        0.78460    0.77860    0.28440    1.000
    N16      N        0.81100    0.75740    0.30790    1.000
    H8       H        0.80540    0.75580    0.32970    1.000
    N17      N        0.74930    0.82270    0.38040    1.000
    H9       H        0.72090    0.81410    0.38570    1.000
    N18      N        0.76670    0.82370    0.34790    1.000
    C4       C        0.40660    0.58730    0.43250    1.000
    H10      H        0.41300    0.56280    0.43390    1.000
    H11      H        0.39890    0.59610    0.45510    1.000
    H12      H        0.43540    0.59900    0.42370    1.000
    C5       C        0.36920    0.59290    0.41180    1.000
    C6       C        0.34160    0.62650    0.40410    1.000
    C7       C        0.30570    0.61340    0.37960    1.000
    C8       C        0.26800    0.64170    0.36470    1.000
    H13      H        0.24100    0.64480    0.38050    1.000
    H14      H        0.25540    0.63400    0.34280    1.000
    H15      H        0.28490    0.66350    0.36170    1.000
    C9       C        0.27470    0.66730    0.46380    1.000
    H16      H        0.25770    0.68790    0.47130    1.000
    H17      H        0.28390    0.65360    0.48350    1.000
    H18      H        0.25320    0.65390    0.44910    1.000
    C10      C        0.32110    0.67760    0.44370    1.000
    C11      C        0.35100    0.65980    0.42040    1.000
    C12      C        0.38780    0.68140    0.41050    1.000
    C13      C        0.42880    0.67310    0.38510    1.000
    H19      H        0.43640    0.69350    0.37180    1.000
    H20      H        0.41820    0.65480    0.36990    1.000
    H21      H        0.45770    0.66570    0.39750    1.000
    C14      C        0.55640    0.86180    0.42750    1.000
    H22      H        0.54830    0.87970    0.44390    1.000
    H23      H        0.57730    0.87120    0.40980    1.000
    H24      H        0.57330    0.84320    0.43910    1.000
    C15      C        0.39900    0.84050    0.35900    1.000
    H25      H        0.40700    0.83150    0.33660    1.000
    H26      H        0.39120    0.86480    0.35720    1.000
    H27      H        0.37100    0.82820    0.36810    1.000
    C16      C        0.47280    0.93820    0.40920    1.000
    H28      H        0.44130    0.92890    0.41600    1.000
    H29      H        0.47100    0.96320    0.40850    1.000
    H30      H        0.49760    0.93130    0.42560    1.000
    C17      C        0.50250    0.88700    0.33040    1.000
    C18      C        0.48860    0.88920    0.36570    1.000
    C19      C        0.48610    0.92500    0.37480    1.000
    N19      N        0.49840    0.94480    0.34510    1.000
    N20      N        0.50850    0.92140    0.31770    1.000
    H31      H        0.51690    0.92700    0.29700    1.000
    C20      C        0.51000    0.85560    0.30270    1.000
    H32      H        0.53400    0.83930    0.31150    1.000
    H33      H        0.52190    0.86500    0.28130    1.000
    H34      H        0.47920    0.84390    0.29900    1.000
    C21      C        0.52200    0.76050    0.21190    1.000
    H35      H        0.51820    0.73790    0.22200    1.000
    H36      H        0.49220    0.76750    0.20080    1.000
    H37      H        0.53060    0.77700    0.22960    1.000
    C22      C        0.61310    0.75430    0.19020    1.000
    C23      C        0.63330    0.75170    0.15640    1.000
    N21      N        0.59390    0.75510    0.13240    1.000
    N22      N        0.54940    0.75990    0.15130    1.000
    H38      H        0.52030    0.76260    0.14270    1.000
    C24      C        0.56130    0.75940    0.18700    1.000
    C25      C        0.68130    0.74930    0.15100    1.000
    H39      H        0.69750    0.76940    0.16040    1.000
    H40      H        0.68760    0.74800    0.12670    1.000
    H41      H        0.69390    0.72880    0.16210    1.000
    C26      C        0.67270    0.69110    0.22870    1.000
    H42      H        0.70740    0.68830    0.22420    1.000
    H43      H        0.65430    0.68600    0.20810    1.000
    H44      H        0.66290    0.67540    0.24680    1.000
    C27      C        0.66220    0.72890    0.24010    1.000
    C28      C        0.63900    0.75160    0.22350    1.000
    C29      C        0.64710    0.78520    0.24220    1.000
    C30      C        0.62780    0.82210    0.23870    1.000
    H45      H        0.64520    0.83700    0.25440    1.000
    H46      H        0.59310    0.82250    0.24390    1.000
    H47      H        0.63300    0.83010    0.21550    1.000
    C31      C        0.01030    0.56400    0.01230    1.000
    H48      H        0.01920    0.54150    0.00330    1.000
    H49      H        0.01430    0.56400    0.03690    1.000
    H50      H        0.03130    0.58140    0.00230    1.000
    C32      C        0.95840    0.57150    0.00360    1.000
    C33      C        0.92870    0.59920    0.01520    1.000
    C34      C        0.88350    0.59740    0.99340    1.000
    C35      C        0.83780    0.61820    0.99520    1.000
    H51      H        0.84320    0.64030    0.98430    1.000
    H52      H        0.82890    0.62170    0.01890    1.000
    H53      H        0.81160    0.60610    0.98350    1.000
    C36      C        0.87620    0.60510    0.09000    1.000
    H54      H        0.88610    0.59420    0.11120    1.000
    H55      H        0.86550    0.58770    0.07400    1.000
    H56      H        0.84950    0.62100    0.09450    1.000
    C37      C        0.91590    0.62330    0.07620    1.000
    C38      C        0.93740    0.62490    0.03970    1.000
    C39      C        0.97630    0.64920    0.04360    1.000
    C40      C        0.00740    0.66060    0.01470    1.000
    H57      H        0.02140    0.68300    0.01990    1.000
    H58      H        0.98760    0.66220    0.99420    1.000
    H59      H        0.03350    0.64410    0.01110    1.000
    C41      C        0.82510    0.68830    0.20820    1.000
    H60      H        0.81550    0.68260    0.18500    1.000
    H61      H        0.79900    0.70110    0.21920    1.000
    H62      H        0.83120    0.66730    0.22090    1.000
    C42      C        0.86930    0.70900    0.20750    1.000
    C43      C        0.87670    0.73880    0.22890    1.000
    C44      C        0.91300    0.75780    0.21400    1.000
    C45      C        0.93940    0.79190    0.22510    1.000
    H63      H        0.97010    0.78630    0.23630    1.000
    H64      H        0.91860    0.80450    0.24080    1.000
    H65      H        0.94580    0.80590    0.20510    1.000
    C46      C        0.78010    0.79220    0.22420    1.000
    H66      H        0.74750    0.80040    0.23000    1.000
    H67      H        0.77800    0.77640    0.20510    1.000
    H68      H        0.80060    0.81160    0.21790    1.000
    C47      C        0.80220    0.77390    0.25480    1.000
    C48      C        0.84100    0.74790    0.25490    1.000
    C49      C        0.84790    0.73940    0.28970    1.000
    C50      C        0.87650    0.71600    0.30460    1.000
    H69      H        0.90910    0.71710    0.29480    1.000
    H70      H        0.86290    0.69320    0.30100    1.000
    H71      H        0.87830    0.72070    0.32900    1.000
    C51      C        0.84660    0.84200    0.32230    1.000
    H72      H        0.87040    0.82350    0.32290    1.000
    H73      H        0.86340    0.86400    0.32270    1.000
    H74      H        0.82720    0.84020    0.30160    1.000
    C52      C        0.81370    0.83930    0.35280    1.000
    C53      C        0.82230    0.84710    0.38620    1.000
    C54      C        0.78070    0.83650    0.40440    1.000
    C55      C        0.76890    0.84130    0.44380    1.000
    H75      H        0.73570    0.84980    0.44640    1.000
    H76      H        0.79170    0.85770    0.45360    1.000
    H77      H        0.77210    0.81930    0.45540    1.000
    C56      C        0.90110    0.81630    0.44680    1.000
    H78      H        0.91820    0.80010    0.43230    1.000
    H79      H        0.86880    0.80730    0.45230    1.000
    H80      H        0.91950    0.81970    0.46770    1.000
    C57      C        0.87450    0.89950    0.39560    1.000
    N23      N        0.91400    0.90900    0.41790    1.000
    N24      N        0.92710    0.87940    0.43770    1.000
    H81      H        0.95000    0.87840    0.45310    1.000
    C58      C        0.89570    0.85150    0.42770    1.000
    C59      C        0.86320    0.86400    0.40170    1.000
    C60      C        0.85300    0.92500    0.37230    1.000
    H82      H        0.85480    0.94770    0.38250    1.000
    H83      H        0.81900    0.91910    0.36800    1.000
    H84      H        0.87100    0.92490    0.35090    1.000
    O86      O        0.68140    0.61050    0.48140    1.000
    K2       K        0.64970    0.59880    0.48200    1.000
    O87      O        0.72800    0.62960    0.48640    1.000
    W31      W        0.67512    0.93190    0.85524    1.000
    W32      W        0.77277    0.98472    0.85717    1.000
    W33      W        0.84251    0.90455    0.82578    1.000
    W34      W        0.74504    0.85139    0.82468    1.000
    W35      W        0.81215    0.77410    0.86110    1.000
    W36      W        0.91207    0.82311    0.85011    1.000
    W37      W        0.92316    0.90059    0.90347    1.000
    W38      W        0.70477    0.81267    0.90600    1.000
    W39      W        0.63781    0.89106    0.93827    1.000
    W40      W        0.85422    0.98018    0.93208    1.000
    W41      W        0.73784    0.03117    0.93916    1.000
    W42      W        0.63289    0.98513    0.93160    1.000
    W43      W        0.63322    0.98626    0.02991    1.000
    W44      W        0.73790    0.03093    0.03726    1.000
    W45      W        0.85389    0.98320    0.02878    1.000
    W46      W        0.64012    0.88990    0.03499    1.000
    W47      W        0.71066    0.81092    0.06274    1.000
    W48      W        0.92205    0.90435    0.05938    1.000
    W49      W        0.96606    0.85359    0.98320    1.000
    W50      W        0.74953    0.76298    0.98331    1.000
    W51      W        0.85608    0.72478    0.93990    1.000
    W52      W        0.95664    0.77391    0.92978    1.000
    W53      W        0.96238    0.76962    0.02662    1.000
    W54      W        0.85356    0.72907    0.03609    1.000
    W55      W        0.81451    0.78060    0.11479    1.000
    W56      W        0.92399    0.82032    0.10633    1.000
    W57      W        0.85576    0.89762    0.14112    1.000
    W58      W        0.74467    0.86042    0.14126    1.000
    W59      W        0.67507    0.94017    0.11039    1.000
    W60      W        0.78581    0.97768    0.11169    1.000
    Co5      Co       0.04172    0.95372    0.07617    1.000
    Co6      Co       0.08870    0.73744    0.91929    1.000
    Co7      Co       0.77719    0.69569    0.80688    1.000
    Co8      Co       0.57824    0.82356    0.64097    1.000
    K3       K        0.74170    0.85607    0.98481    1.000
    P6       P        0.81510    0.85507    0.89720    1.000
    P7       P        0.74080    0.94122    0.93110    1.000
    P8       P        0.74410    0.94146    0.03640    1.000
    P9       P        0.81910    0.85558    0.06920    1.000
    P10      P        0.86380    0.80197    0.98300    1.000
    O88      O        0.79240    0.87800    0.80010    1.000
    O89      O        0.80320    0.94320    0.83070    1.000
    O90      O        0.70870    0.89820    0.83240    1.000
    O91      O        0.71370    0.97030    0.83500    1.000
    O92      O        0.64560    0.97220    0.88860    1.000
    O93      O        0.74490    0.01510    0.88770    1.000
    O94      O        0.82940    0.97940    0.88610    1.000
    O95      O        0.73940    0.94170    0.89050    1.000
    O96      O        0.64940    0.90280    0.88980    1.000
    O97      O        0.70670    0.83750    0.86400    1.000
    O98      O        0.79680    0.87440    0.86470    1.000
    O99      O        0.88680    0.91290    0.86070    1.000
    O100     O        0.87890    0.85580    0.82570    1.000
    O101     O        0.78210    0.81150    0.82810    1.000
    O102     O        0.78910    0.74080    0.83510    1.000
    O103     O        0.87230    0.78420    0.83650    1.000
    O104     O        0.93440    0.85670    0.88270    1.000
    O105     O        0.84240    0.82120    0.88490    1.000
    O106     O        0.75520    0.78360    0.88590    1.000
    O107     O        0.77000    0.84490    0.91940    1.000
    O108     O        0.85050    0.87730    0.91950    1.000
    O109     O        0.89090    0.93950    0.92800    1.000
    O110     O        0.67310    0.84750    0.93230    1.000
    O111     O        0.71530    0.90930    0.94510    1.000
    O112     O        0.79460    0.94360    0.94320    1.000
    O113     O        0.89960    0.01090    0.92310    1.000
    O114     O        0.80290    0.01370    0.94170    1.000
    O115     O        0.71340    0.97540    0.94200    1.000
    O116     O        0.62190    0.93910    0.94430    1.000
    O117     O        0.66670    0.02970    0.92890    1.000
    O118     O        0.72900    0.03480    0.98590    1.000
    O119     O        0.63210    0.99370    0.98390    1.000
    O120     O        0.64250    0.88160    0.98490    1.000
    O121     O        0.86300    0.97760    0.98040    1.000
    O122     O        0.94460    0.88500    0.94720    1.000
    O123     O        0.72210    0.79270    0.94940    1.000
    O124     O        0.84080    0.74830    0.89340    1.000
    O125     O        0.93680    0.78920    0.88750    1.000
    O126     O        0.01510    0.75830    0.91590    1.000
    O127     O        0.92440    0.72820    0.92500    1.000
    O128     O        0.79070    0.74200    0.94920    1.000
    O129     O        0.88160    0.78040    0.94980    1.000
    O130     O        0.97250    0.81870    0.94950    1.000
    O131     O        0.88710    0.83770    0.98250    1.000
    O132     O        0.80580    0.80400    0.98340    1.000
    O133     O        0.72190    0.79310    0.01800    1.000
    O134     O        0.94160    0.88470    0.01600    1.000
    O135     O        0.97990    0.92450    0.06750    1.000
    O136     O        0.85270    0.87840    0.04680    1.000
    O137     O        0.77500    0.84350    0.04840    1.000
    O138     O        0.65860    0.78500    0.07220    1.000
    O139     O        0.67640    0.84740    0.03790    1.000
    O140     O        0.89370    0.93990    0.03340    1.000
    O141     O        0.79590    0.94340    0.02120    1.000
    O142     O        0.71840    0.90850    0.02310    1.000
    O143     O        0.62600    0.93800    0.02570    1.000
    O144     O        0.71490    0.97420    0.02440    1.000
    O145     O        0.80430    0.01600    0.02080    1.000
    O146     O        0.66840    0.02910    0.04150    1.000
    O147     O        0.64970    0.97230    0.07960    1.000
    O148     O        0.75210    0.01310    0.07880    1.000
    O149     O        0.83550    0.97980    0.07740    1.000
    O150     O        0.74630    0.94180    0.07760    1.000
    O151     O        0.65340    0.90390    0.07990    1.000
    O152     O        0.71180    0.83840    0.10410    1.000
    O153     O        0.80320    0.87510    0.10200    1.000
    O154     O        0.88930    0.91600    0.10320    1.000
    O155     O        0.93630    0.85980    0.07890    1.000
    O156     O        0.84830    0.82330    0.08030    1.000
    O157     O        0.76000    0.78270    0.08310    1.000
    O158     O        0.79070    0.74190    0.01630    1.000
    O159     O        0.88060    0.78160    0.01430    1.000
    O160     O        0.97440    0.81850    0.01660    1.000
    O161     O        0.96550    0.75880    0.98290    1.000
    O162     O        0.86600    0.71680    0.98560    1.000
    O163     O        0.92490    0.72960    0.04250    1.000
    O164     O        0.94280    0.78980    0.07370    1.000
    O165     O        0.84360    0.75060    0.07800    1.000
    O166     O        0.88220    0.78750    0.13080    1.000
    O167     O        0.88920    0.85780    0.13830    1.000
    O168     O        0.78630    0.81570    0.14150    1.000
    O169     O        0.80050    0.87870    0.16800    1.000
    O170     O        0.81180    0.94010    0.13470    1.000
    O171     O        0.71340    0.90290    0.13510    1.000
    O172     O        0.72250    0.97180    0.13230    1.000
    N25      N        0.15270    0.93060    0.89300    1.000
    H85      H        0.14290    0.94950    0.88730    1.000
    N26      N        0.19010    0.91790    0.87420    1.000
    N27      N        0.15870    0.79340    0.94710    1.000
    H86      H        0.16950    0.77820    0.96150    1.000
    N28      N        0.11790    0.78710    0.92660    1.000
    N29      N        0.05590    0.68820    0.90890    1.000
    N30      N        0.01210    0.68060    0.92780    1.000
    H87      H        0.00150    0.69160    0.94560    1.000
    C61      C        0.98890    0.65150    0.91200    1.000
    C62      C        0.01830    0.64120    0.88340    1.000
    C63      C        0.05970    0.66390    0.88150    1.000
    N31      N        0.81250    0.75840    0.76610    1.000
    H88      H        0.79300    0.77030    0.77900    1.000
    N32      N        0.82170    0.72330    0.76970    1.000
    N33      N        0.56500    0.94420    0.47820    1.000
    N34      N        0.60940    0.92970    0.47320    1.000
    H89      H        0.63080    0.93730    0.45860    1.000
    N35      N        0.56000    0.85050    0.59590    1.000
    N36      N        0.52720    0.83710    0.57350    1.000
    H90      H        0.50900    0.81970    0.57920    1.000
    N37      N        0.56590    0.76260    0.69190    1.000
    H91      H        0.53760    0.75840    0.68250    1.000
    N38      N        0.59510    0.79320    0.68490    1.000
    N39      N        0.71540    0.72140    0.78440    1.000
    N40      N        0.68900    0.74260    0.80790    1.000
    H92      H        0.69460    0.74420    0.82970    1.000
    N41      N        0.75070    0.67730    0.88040    1.000
    H93      H        0.77910    0.68590    0.88570    1.000
    N42      N        0.73330    0.67630    0.84790    1.000
    C64      C        0.09340    0.91270    0.93250    1.000
    H94      H        0.08700    0.93720    0.93390    1.000
    H95      H        0.10110    0.90390    0.95510    1.000
    H96      H        0.06460    0.90100    0.92370    1.000
    C65      C        0.13080    0.90710    0.91180    1.000
    C66      C        0.15840    0.87350    0.90410    1.000
    C67      C        0.19430    0.88660    0.87960    1.000
    C68      C        0.23200    0.85830    0.86470    1.000
    H97      H        0.25900    0.85520    0.88050    1.000
    H98      H        0.24460    0.86600    0.84280    1.000
    H99      H        0.21510    0.83650    0.86170    1.000
    C69      C        0.22530    0.83270    0.96380    1.000
    H100     H        0.24230    0.81210    0.97130    1.000
    H101     H        0.21610    0.84640    0.98350    1.000
    H102     H        0.24680    0.84610    0.94910    1.000
    C70      C        0.17890    0.82240    0.94370    1.000
    C71      C        0.14900    0.84020    0.92040    1.000
    C72      C        0.11220    0.81860    0.91050    1.000
    C73      C        0.07120    0.82690    0.88510    1.000
    H103     H        0.06360    0.80650    0.87180    1.000
    H104     H        0.08180    0.84520    0.86990    1.000
    H105     H        0.04230    0.83430    0.89750    1.000
    C74      C        0.94360    0.63820    0.92750    1.000
    H106     H        0.95170    0.62030    0.94390    1.000
    H107     H        0.92270    0.62880    0.90980    1.000
    H108     H        0.92670    0.65680    0.93910    1.000
    C75      C        0.10100    0.65950    0.85900    1.000
    H109     H        0.09300    0.66850    0.83660    1.000
    H110     H        0.10880    0.63520    0.85720    1.000
    H111     H        0.12900    0.67180    0.86810    1.000
    C76      C        0.02720    0.56180    0.90920    1.000
    H112     H        0.05870    0.57110    0.91600    1.000
    H113     H        0.02900    0.53680    0.90850    1.000
    H114     H        0.00240    0.56870    0.92560    1.000
    C77      C        0.99750    0.61300    0.83040    1.000
    C78      C        0.01140    0.61080    0.86570    1.000
    C79      C        0.01390    0.57500    0.87480    1.000
    N43      N        0.00160    0.55520    0.84510    1.000
    N44      N        0.99150    0.57860    0.81770    1.000
    H115     H        0.98310    0.57300    0.79700    1.000
    C80      C        0.99000    0.64440    0.80270    1.000
    H116     H        0.96600    0.66070    0.81150    1.000
    H117     H        0.97810    0.63500    0.78130    1.000
    H118     H        0.02080    0.65610    0.79900    1.000
    C81      C        0.97800    0.73950    0.71190    1.000
    H119     H        0.98180    0.76210    0.72200    1.000
    H120     H        0.00780    0.73250    0.70080    1.000
    H121     H        0.96940    0.72300    0.72960    1.000
    C82      C        0.88690    0.74570    0.69020    1.000
    C83      C        0.86670    0.74830    0.65640    1.000
    N45      N        0.90610    0.74490    0.63240    1.000
    N46      N        0.95060    0.74010    0.65130    1.000
    H122     H        0.97970    0.73740    0.64270    1.000
    C84      C        0.93870    0.74060    0.68700    1.000
    C85      C        0.81870    0.75070    0.65100    1.000
    H123     H        0.80250    0.73060    0.66040    1.000
    H124     H        0.81240    0.75200    0.62670    1.000
    H125     H        0.80610    0.77120    0.66210    1.000
    C86      C        0.82730    0.80890    0.72870    1.000
    H126     H        0.79260    0.81170    0.72420    1.000
    H127     H        0.84570    0.81400    0.70810    1.000
    H128     H        0.83710    0.82460    0.74680    1.000
    C87      C        0.83780    0.77110    0.74010    1.000
    C88      C        0.86100    0.74840    0.72350    1.000
    C89      C        0.85290    0.71480    0.74220    1.000
    C90      C        0.87220    0.67790    0.73870    1.000
    H129     H        0.85480    0.66300    0.75440    1.000
    H130     H        0.90690    0.67750    0.74390    1.000
    H131     H        0.86700    0.66990    0.71550    1.000
    C91      C        0.48970    0.93600    0.51230    1.000
    H132     H        0.48080    0.95850    0.50330    1.000
    H133     H        0.48570    0.93600    0.53690    1.000
    H134     H        0.46870    0.91860    0.50230    1.000
    C92      C        0.54160    0.92850    0.50360    1.000
    C93      C        0.57130    0.90080    0.51520    1.000
    C94      C        0.61650    0.90260    0.49340    1.000
    C95      C        0.66220    0.88180    0.49520    1.000
    H135     H        0.65680    0.85970    0.48430    1.000
    H136     H        0.67110    0.87830    0.51890    1.000
    H137     H        0.68840    0.89390    0.48350    1.000
    C96      C        0.62380    0.89490    0.59000    1.000
    H138     H        0.61390    0.90580    0.61120    1.000
    H139     H        0.63450    0.91230    0.57400    1.000
    H140     H        0.65050    0.87900    0.59450    1.000
    C97      C        0.58410    0.87670    0.57620    1.000
    C98      C        0.56260    0.87510    0.53970    1.000
    C99      C        0.52370    0.85080    0.54360    1.000
    C100     C        0.49260    0.83940    0.51470    1.000
    H141     H        0.47860    0.81700    0.51990    1.000
    H142     H        0.51240    0.83780    0.49420    1.000
    H143     H        0.46650    0.85590    0.51110    1.000
    C101     C        0.67490    0.81170    0.70820    1.000
    H144     H        0.68450    0.81740    0.68500    1.000
    H145     H        0.70100    0.79890    0.71920    1.000
    H146     H        0.66880    0.83270    0.72090    1.000
    C102     C        0.63070    0.79100    0.70750    1.000
    C103     C        0.62330    0.76120    0.72890    1.000
    C104     C        0.58700    0.74220    0.71400    1.000
    C105     C        0.56060    0.70810    0.72510    1.000
    H147     H        0.52990    0.71370    0.73630    1.000
    H148     H        0.58140    0.69550    0.74080    1.000
    H149     H        0.55420    0.69410    0.70510    1.000
    C106     C        0.71990    0.70780    0.72420    1.000
    H150     H        0.75250    0.69960    0.73000    1.000
    H151     H        0.72200    0.72360    0.70510    1.000
    H152     H        0.69940    0.68840    0.71790    1.000
    C107     C        0.69780    0.72610    0.75480    1.000
    C108     C        0.65900    0.75210    0.75490    1.000
    C109     C        0.65210    0.76060    0.78970    1.000
    C110     C        0.62350    0.78400    0.80460    1.000
    H153     H        0.59090    0.78290    0.79480    1.000
    H154     H        0.63710    0.80680    0.80100    1.000
    H155     H        0.62170    0.77930    0.82900    1.000
    C111     C        0.65340    0.65800    0.82230    1.000
    H156     H        0.62960    0.67650    0.82290    1.000
    H157     H        0.63660    0.63600    0.82270    1.000
    H158     H        0.67280    0.65980    0.80160    1.000
    C112     C        0.68630    0.66070    0.85280    1.000
    C113     C        0.67770    0.65290    0.88620    1.000
    C114     C        0.71930    0.66350    0.90440    1.000
    C115     C        0.73110    0.65870    0.94380    1.000
    H159     H        0.76430    0.65020    0.94640    1.000
    H160     H        0.70830    0.64230    0.95360    1.000
    H161     H        0.72790    0.68070    0.95540    1.000
    C116     C        0.59890    0.68370    0.94680    1.000
    H162     H        0.58180    0.69990    0.93230    1.000
    H163     H        0.63120    0.69270    0.95230    1.000
    H164     H        0.58050    0.68030    0.96770    1.000
    C117     C        0.62550    0.60050    0.89560    1.000
    N47      N        0.58600    0.59100    0.91790    1.000
    N48      N        0.57290    0.62060    0.93770    1.000
    H165     H        0.55000    0.62160    0.95310    1.000
    C118     C        0.60430    0.64850    0.92770    1.000
    C119     C        0.63680    0.63600    0.90170    1.000
    C120     C        0.64700    0.57500    0.87230    1.000
    H166     H        0.64520    0.55230    0.88250    1.000
    H167     H        0.68100    0.58090    0.86800    1.000
    H168     H        0.62900    0.57510    0.85090    1.000
    O173     O        0.81860    0.88950    0.98140    1.000
    K4       K        0.85030    0.90120    0.98200    1.000
    O174     O        0.77200    0.87040    0.98640    1.000
    W61      W        0.17512    0.56810    0.14476    1.000
    W62      W        0.27277    0.51528    0.14283    1.000
    W63      W        0.34251    0.59545    0.17422    1.000
    W64      W        0.24504    0.64861    0.17532    1.000
    W65      W        0.31215    0.72590    0.13890    1.000
    W66      W        0.41207    0.67689    0.14989    1.000
    W67      W        0.42316    0.59941    0.09653    1.000
    W68      W        0.20477    0.68733    0.09400    1.000
    W69      W        0.13781    0.60894    0.06173    1.000
    W70      W        0.35422    0.51982    0.06792    1.000
    W71      W        0.23784    0.46883    0.06084    1.000
    W72      W        0.13289    0.51487    0.06840    1.000
    W73      W        0.13322    0.51374    0.97009    1.000
    W74      W        0.23790    0.46907    0.96274    1.000
    W75      W        0.35389    0.51680    0.97122    1.000
    W76      W        0.14012    0.61010    0.96501    1.000
    W77      W        0.21066    0.68908    0.93726    1.000
    W78      W        0.42205    0.59565    0.94062    1.000
    W79      W        0.46606    0.64641    0.01680    1.000
    W80      W        0.24953    0.73702    0.01669    1.000
    W81      W        0.35608    0.77522    0.06010    1.000
    W82      W        0.45664    0.72609    0.07022    1.000
    W83      W        0.46238    0.73038    0.97338    1.000
    W84      W        0.35356    0.77093    0.96391    1.000
    W85      W        0.31451    0.71940    0.88521    1.000
    W86      W        0.42399    0.67968    0.89367    1.000
    W87      W        0.35576    0.60238    0.85888    1.000
    W88      W        0.24467    0.63958    0.85874    1.000
    W89      W        0.17507    0.55983    0.88961    1.000
    W90      W        0.28581    0.52232    0.88831    1.000
    Co9      Co       0.54172    0.54628    0.92383    1.000
    Co10     Co       0.58870    0.76256    0.08071    1.000
    Co11     Co       0.27719    0.80431    0.19312    1.000
    Co12     Co       0.07824    0.67644    0.35903    1.000
    K5       K        0.24170    0.64393    0.01519    1.000
    P11      P        0.31510    0.64493    0.10280    1.000
    P12      P        0.24080    0.55878    0.06890    1.000
    P13      P        0.24410    0.55854    0.96360    1.000
    P14      P        0.31910    0.64442    0.93080    1.000
    P15      P        0.36380    0.69803    0.01700    1.000
    O175     O        0.29240    0.62200    0.19990    1.000
    O176     O        0.30320    0.55680    0.16930    1.000
    O177     O        0.20870    0.60180    0.16760    1.000
    O178     O        0.21370    0.52970    0.16500    1.000
    O179     O        0.14560    0.52780    0.11140    1.000
    O180     O        0.24490    0.48490    0.11230    1.000
    O181     O        0.32940    0.52060    0.11390    1.000
    O182     O        0.23940    0.55830    0.10950    1.000
    O183     O        0.14940    0.59720    0.11020    1.000
    O184     O        0.20670    0.66250    0.13600    1.000
    O185     O        0.29680    0.62560    0.13530    1.000
    O186     O        0.38680    0.58710    0.13930    1.000
    O187     O        0.37890    0.64420    0.17430    1.000
    O188     O        0.28210    0.68850    0.17190    1.000
    O189     O        0.28910    0.75920    0.16490    1.000
    O190     O        0.37230    0.71580    0.16350    1.000
    O191     O        0.43440    0.64330    0.11730    1.000
    O192     O        0.34240    0.67880    0.11510    1.000
    O193     O        0.25520    0.71640    0.11410    1.000
    O194     O        0.27000    0.65510    0.08060    1.000
    O195     O        0.35050    0.62270    0.08050    1.000
    O196     O        0.39090    0.56050    0.07200    1.000
    O197     O        0.17310    0.65250    0.06770    1.000
    O198     O        0.21530    0.59070    0.05490    1.000
    O199     O        0.29460    0.55640    0.05680    1.000
    O200     O        0.39960    0.48910    0.07690    1.000
    O201     O        0.30290    0.48630    0.05830    1.000
    O202     O        0.21340    0.52460    0.05800    1.000
    O203     O        0.12190    0.56090    0.05570    1.000
    O204     O        0.16670    0.47030    0.07110    1.000
    O205     O        0.22900    0.46520    0.01410    1.000
    O206     O        0.13210    0.50630    0.01610    1.000
    O207     O        0.14250    0.61840    0.01510    1.000
    O208     O        0.36300    0.52240    0.01960    1.000
    O209     O        0.44460    0.61500    0.05280    1.000
    O210     O        0.22210    0.70730    0.05060    1.000
    O211     O        0.34080    0.75170    0.10660    1.000
    O212     O        0.43680    0.71080    0.11250    1.000
    O213     O        0.51510    0.74170    0.08410    1.000
    O214     O        0.42440    0.77180    0.07500    1.000
    O215     O        0.29070    0.75800    0.05080    1.000
    O216     O        0.38160    0.71960    0.05020    1.000
    O217     O        0.47250    0.68130    0.05050    1.000
    O218     O        0.38710    0.66230    0.01750    1.000
    O219     O        0.30580    0.69600    0.01660    1.000
    O220     O        0.22190    0.70690    0.98200    1.000
    O221     O        0.44160    0.61530    0.98400    1.000
    O222     O        0.47990    0.57550    0.93250    1.000
    O223     O        0.35270    0.62160    0.95320    1.000
    O224     O        0.27500    0.65650    0.95160    1.000
    O225     O        0.15860    0.71500    0.92780    1.000
    O226     O        0.17640    0.65260    0.96210    1.000
    O227     O        0.39370    0.56010    0.96660    1.000
    O228     O        0.29590    0.55660    0.97880    1.000
    O229     O        0.21840    0.59150    0.97690    1.000
    O230     O        0.12600    0.56200    0.97430    1.000
    O231     O        0.21490    0.52580    0.97560    1.000
    O232     O        0.30430    0.48400    0.97920    1.000
    O233     O        0.16840    0.47090    0.95850    1.000
    O234     O        0.14970    0.52770    0.92040    1.000
    O235     O        0.25210    0.48690    0.92120    1.000
    O236     O        0.33550    0.52020    0.92260    1.000
    O237     O        0.24630    0.55820    0.92240    1.000
    O238     O        0.15340    0.59610    0.92010    1.000
    O239     O        0.21180    0.66160    0.89590    1.000
    O240     O        0.30320    0.62490    0.89800    1.000
    O241     O        0.38930    0.58400    0.89680    1.000
    O242     O        0.43630    0.64020    0.92110    1.000
    O243     O        0.34830    0.67670    0.91970    1.000
    O244     O        0.26000    0.71730    0.91690    1.000
    O245     O        0.29070    0.75810    0.98370    1.000
    O246     O        0.38060    0.71840    0.98570    1.000
    O247     O        0.47440    0.68150    0.98340    1.000
    O248     O        0.46550    0.74120    0.01710    1.000
    O249     O        0.36600    0.78320    0.01440    1.000
    O250     O        0.42490    0.77040    0.95750    1.000
    O251     O        0.44280    0.71020    0.92630    1.000
    O252     O        0.34360    0.74940    0.92200    1.000
    O253     O        0.38220    0.71250    0.86920    1.000
    O254     O        0.38920    0.64220    0.86170    1.000
    O255     O        0.28630    0.68430    0.85850    1.000
    O256     O        0.30050    0.62130    0.83200    1.000
    O257     O        0.31180    0.55990    0.86530    1.000
    O258     O        0.21340    0.59710    0.86490    1.000
    O259     O        0.22250    0.52820    0.86770    1.000
    N49      N        0.65270    0.56940    0.10700    1.000
    H169     H        0.64290    0.55050    0.11270    1.000
    N50      N        0.69010    0.58210    0.12580    1.000
    N51      N        0.65870    0.70660    0.05290    1.000
    H170     H        0.66950    0.72180    0.03850    1.000
    N52      N        0.61790    0.71290    0.07340    1.000
    N53      N        0.55590    0.81180    0.09110    1.000
    N54      N        0.51210    0.81940    0.07220    1.000
    H171     H        0.50150    0.80840    0.05440    1.000
    C121     C        0.48890    0.84850    0.08800    1.000
    C122     C        0.51830    0.85880    0.11660    1.000
    C123     C        0.55970    0.83610    0.11850    1.000
    N55      N        0.31250    0.74160    0.23390    1.000
    H172     H        0.29300    0.72970    0.22100    1.000
    N56      N        0.32170    0.77670    0.23030    1.000
    N57      N        0.06500    0.55580    0.52180    1.000
    N58      N        0.10940    0.57030    0.52680    1.000
    H173     H        0.13080    0.56270    0.54140    1.000
    N59      N        0.06000    0.64950    0.40410    1.000
    N60      N        0.02720    0.66290    0.42650    1.000
    H174     H        0.00900    0.68030    0.42080    1.000
    N61      N        0.06590    0.73740    0.30810    1.000
    H175     H        0.03760    0.74160    0.31750    1.000
    N62      N        0.09510    0.70680    0.31510    1.000
    N63      N        0.21540    0.77860    0.21560    1.000
    N64      N        0.18900    0.75740    0.19210    1.000
    H176     H        0.19460    0.75580    0.17030    1.000
    N65      N        0.25070    0.82270    0.11960    1.000
    H177     H        0.27910    0.81410    0.11430    1.000
    N66      N        0.23330    0.82370    0.15210    1.000
    C124     C        0.59340    0.58730    0.06750    1.000
    H178     H        0.58700    0.56280    0.06610    1.000
    H179     H        0.60110    0.59610    0.04490    1.000
    H180     H        0.56460    0.59900    0.07630    1.000
    C125     C        0.63080    0.59290    0.08820    1.000
    C126     C        0.65840    0.62650    0.09590    1.000
    C127     C        0.69430    0.61340    0.12040    1.000
    C128     C        0.73200    0.64170    0.13530    1.000
    H181     H        0.75900    0.64480    0.11950    1.000
    H182     H        0.74460    0.63400    0.15720    1.000
    H183     H        0.71510    0.66350    0.13830    1.000
    C129     C        0.72530    0.66730    0.03620    1.000
    H184     H        0.74230    0.68790    0.02870    1.000
    H185     H        0.71610    0.65360    0.01650    1.000
    H186     H        0.74680    0.65390    0.05090    1.000
    C130     C        0.67890    0.67760    0.05630    1.000
    C131     C        0.64900    0.65980    0.07960    1.000
    C132     C        0.61220    0.68140    0.08950    1.000
    C133     C        0.57120    0.67310    0.11490    1.000
    H187     H        0.56360    0.69350    0.12820    1.000
    H188     H        0.58180    0.65480    0.13010    1.000
    H189     H        0.54230    0.66570    0.10250    1.000
    C134     C        0.44360    0.86180    0.07250    1.000
    H190     H        0.45170    0.87970    0.05610    1.000
    H191     H        0.42270    0.87120    0.09020    1.000
    H192     H        0.42670    0.84320    0.06090    1.000
    C135     C        0.60100    0.84050    0.14100    1.000
    H193     H        0.59300    0.83150    0.16340    1.000
    H194     H        0.60880    0.86480    0.14280    1.000
    H195     H        0.62900    0.82820    0.13190    1.000
    C136     C        0.52720    0.93820    0.09080    1.000
    H196     H        0.55870    0.92890    0.08400    1.000
    H197     H        0.52900    0.96320    0.09150    1.000
    H198     H        0.50240    0.93130    0.07440    1.000
    C137     C        0.49750    0.88700    0.16960    1.000
    C138     C        0.51140    0.88920    0.13430    1.000
    C139     C        0.51390    0.92500    0.12520    1.000
    N67      N        0.50160    0.94480    0.15490    1.000
    N68      N        0.49150    0.92140    0.18230    1.000
    H199     H        0.48310    0.92700    0.20300    1.000
    C140     C        0.49000    0.85560    0.19730    1.000
    H200     H        0.46600    0.83930    0.18850    1.000
    H201     H        0.47810    0.86500    0.21870    1.000
    H202     H        0.52080    0.84390    0.20100    1.000
    C141     C        0.47800    0.76050    0.28810    1.000
    H203     H        0.48180    0.73790    0.27800    1.000
    H204     H        0.50780    0.76750    0.29920    1.000
    H205     H        0.46940    0.77700    0.27040    1.000
    C142     C        0.38690    0.75430    0.30980    1.000
    C143     C        0.36670    0.75170    0.34360    1.000
    N69      N        0.40610    0.75510    0.36760    1.000
    N70      N        0.45060    0.75990    0.34870    1.000
    H206     H        0.47970    0.76260    0.35730    1.000
    C144     C        0.43870    0.75940    0.31300    1.000
    C145     C        0.31870    0.74930    0.34900    1.000
    H207     H        0.30250    0.76940    0.33960    1.000
    H208     H        0.31240    0.74800    0.37330    1.000
    H209     H        0.30610    0.72880    0.33790    1.000
    C146     C        0.32730    0.69110    0.27130    1.000
    H210     H        0.29260    0.68830    0.27580    1.000
    H211     H        0.34570    0.68600    0.29190    1.000
    H212     H        0.33710    0.67540    0.25320    1.000
    C147     C        0.33780    0.72890    0.25990    1.000
    C148     C        0.36100    0.75160    0.27650    1.000
    C149     C        0.35290    0.78520    0.25780    1.000
    C150     C        0.37220    0.82210    0.26130    1.000
    H213     H        0.35480    0.83700    0.24560    1.000
    H214     H        0.40690    0.82250    0.25610    1.000
    H215     H        0.36700    0.83010    0.28450    1.000
    C151     C        0.98970    0.56400    0.48770    1.000
    H216     H        0.98080    0.54150    0.49670    1.000
    H217     H        0.98570    0.56400    0.46310    1.000
    H218     H        0.96870    0.58140    0.49770    1.000
    C152     C        0.04160    0.57150    0.49640    1.000
    C153     C        0.07130    0.59920    0.48480    1.000
    C154     C        0.11650    0.59740    0.50660    1.000
    C155     C        0.16220    0.61820    0.50480    1.000
    H219     H        0.15680    0.64030    0.51570    1.000
    H220     H        0.17110    0.62170    0.48110    1.000
    H221     H        0.18840    0.60610    0.51650    1.000
    C156     C        0.12380    0.60510    0.41000    1.000
    H222     H        0.11390    0.59420    0.38880    1.000
    H223     H        0.13450    0.58770    0.42600    1.000
    H224     H        0.15050    0.62100    0.40550    1.000
    C157     C        0.08410    0.62330    0.42380    1.000
    C158     C        0.06260    0.62490    0.46030    1.000
    C159     C        0.02370    0.64920    0.45640    1.000
    C160     C        0.99260    0.66060    0.48530    1.000
    H225     H        0.97860    0.68300    0.48010    1.000
    H226     H        0.01240    0.66220    0.50580    1.000
    H227     H        0.96650    0.64410    0.48890    1.000
    C161     C        0.17490    0.68830    0.29180    1.000
    H228     H        0.18450    0.68260    0.31500    1.000
    H229     H        0.20100    0.70110    0.28080    1.000
    H230     H        0.16880    0.66730    0.27910    1.000
    C162     C        0.13070    0.70900    0.29250    1.000
    C163     C        0.12330    0.73880    0.27110    1.000
    C164     C        0.08700    0.75780    0.28600    1.000
    C165     C        0.06060    0.79190    0.27490    1.000
    H231     H        0.02990    0.78630    0.26370    1.000
    H232     H        0.08140    0.80450    0.25920    1.000
    H233     H        0.05420    0.80590    0.29490    1.000
    C166     C        0.21990    0.79220    0.27580    1.000
    H234     H        0.25250    0.80040    0.27000    1.000
    H235     H        0.22200    0.77640    0.29490    1.000
    H236     H        0.19940    0.81160    0.28210    1.000
    C167     C        0.19780    0.77390    0.24520    1.000
    C168     C        0.15900    0.74790    0.24510    1.000
    C169     C        0.15210    0.73940    0.21030    1.000
    C170     C        0.12350    0.71600    0.19540    1.000
    H237     H        0.09090    0.71710    0.20520    1.000
    H238     H        0.13710    0.69320    0.19900    1.000
    H239     H        0.12170    0.72070    0.17100    1.000
    C171     C        0.15340    0.84200    0.17770    1.000
    H240     H        0.12960    0.82350    0.17710    1.000
    H241     H        0.13660    0.86400    0.17730    1.000
    H242     H        0.17280    0.84020    0.19840    1.000
    C172     C        0.18630    0.83930    0.14720    1.000
    C173     C        0.17770    0.84710    0.11380    1.000
    C174     C        0.21930    0.83650    0.09560    1.000
    C175     C        0.23110    0.84130    0.05620    1.000
    H243     H        0.26430    0.84980    0.05360    1.000
    H244     H        0.20830    0.85770    0.04640    1.000
    H245     H        0.22790    0.81930    0.04460    1.000
    C176     C        0.09890    0.81630    0.05320    1.000
    H246     H        0.08180    0.80010    0.06770    1.000
    H247     H        0.13120    0.80730    0.04770    1.000
    H248     H        0.08050    0.81970    0.03230    1.000
    C177     C        0.12550    0.89950    0.10440    1.000
    N71      N        0.08600    0.90900    0.08210    1.000
    N72      N        0.07290    0.87940    0.06230    1.000
    H249     H        0.05000    0.87840    0.04690    1.000
    C178     C        0.10430    0.85150    0.07230    1.000
    C179     C        0.13680    0.86400    0.09830    1.000
    C180     C        0.14700    0.92500    0.12770    1.000
    H250     H        0.14520    0.94770    0.11750    1.000
    H251     H        0.18100    0.91910    0.13200    1.000
    H252     H        0.12900    0.92490    0.14910    1.000
    O260     O        0.31860    0.61050    0.01860    1.000
    K6       K        0.35030    0.59880    0.01800    1.000
    O261     O        0.27200    0.62960    0.01360    1.000
    W91      W        0.32488    0.93190    0.64476    1.000
    W92      W        0.22723    0.98472    0.64283    1.000
    W93      W        0.15749    0.90455    0.67422    1.000
    W94      W        0.25496    0.85139    0.67532    1.000
    W95      W        0.18785    0.77410    0.63890    1.000
    W96      W        0.08793    0.82311    0.64989    1.000
    W97      W        0.07684    0.90059    0.59653    1.000
    W98      W        0.29523    0.81267    0.59400    1.000
    W99      W        0.36219    0.89106    0.56173    1.000
    W100     W        0.14578    0.98018    0.56792    1.000
    W101     W        0.26216    0.03117    0.56084    1.000
    W102     W        0.36711    0.98513    0.56840    1.000
    W103     W        0.36678    0.98626    0.47009    1.000
    W104     W        0.26210    0.03093    0.46274    1.000
    W105     W        0.14611    0.98320    0.47122    1.000
    W106     W        0.35988    0.88990    0.46501    1.000
    W107     W        0.28934    0.81092    0.43726    1.000
    W108     W        0.07795    0.90435    0.44062    1.000
    W109     W        0.03394    0.85359    0.51680    1.000
    W110     W        0.25047    0.76298    0.51669    1.000
    W111     W        0.14392    0.72478    0.56010    1.000
    W112     W        0.04336    0.77391    0.57022    1.000
    W113     W        0.03762    0.76962    0.47338    1.000
    W114     W        0.14644    0.72907    0.46391    1.000
    W115     W        0.18549    0.78060    0.38521    1.000
    W116     W        0.07601    0.82032    0.39367    1.000
    W117     W        0.14424    0.89762    0.35888    1.000
    W118     W        0.25533    0.86042    0.35874    1.000
    W119     W        0.32493    0.94017    0.38961    1.000
    W120     W        0.21419    0.97768    0.38831    1.000
    Co13     Co       0.95828    0.95372    0.42383    1.000
    Co14     Co       0.91130    0.73744    0.58071    1.000
    Co15     Co       0.22281    0.69569    0.69312    1.000
    Co16     Co       0.42176    0.82356    0.85903    1.000
    K7       K        0.25830    0.85607    0.51519    1.000
    P16      P        0.18490    0.85507    0.60280    1.000
    P17      P        0.25920    0.94122    0.56890    1.000
    P18      P        0.25590    0.94146    0.46360    1.000
    P19      P        0.18090    0.85558    0.43080    1.000
    P20      P        0.13620    0.80197    0.51700    1.000
    O262     O        0.20760    0.87800    0.69990    1.000
    O263     O        0.19680    0.94320    0.66930    1.000
    O264     O        0.29130    0.89820    0.66760    1.000
    O265     O        0.28630    0.97030    0.66500    1.000
    O266     O        0.35440    0.97220    0.61140    1.000
    O267     O        0.25510    0.01510    0.61230    1.000
    O268     O        0.17060    0.97940    0.61390    1.000
    O269     O        0.26060    0.94170    0.60950    1.000
    O270     O        0.35060    0.90280    0.61020    1.000
    O271     O        0.29330    0.83750    0.63600    1.000
    O272     O        0.20320    0.87440    0.63530    1.000
    O273     O        0.11320    0.91290    0.63930    1.000
    O274     O        0.12110    0.85580    0.67430    1.000
    O275     O        0.21790    0.81150    0.67190    1.000
    O276     O        0.21090    0.74080    0.66490    1.000
    O277     O        0.12770    0.78420    0.66350    1.000
    O278     O        0.06560    0.85670    0.61730    1.000
    O279     O        0.15760    0.82120    0.61510    1.000
    O280     O        0.24480    0.78360    0.61410    1.000
    O281     O        0.23000    0.84490    0.58060    1.000
    O282     O        0.14950    0.87730    0.58050    1.000
    O283     O        0.10910    0.93950    0.57200    1.000
    O284     O        0.32690    0.84750    0.56770    1.000
    O285     O        0.28470    0.90930    0.55490    1.000
    O286     O        0.20540    0.94360    0.55680    1.000
    O287     O        0.10040    0.01090    0.57690    1.000
    O288     O        0.19710    0.01370    0.55830    1.000
    O289     O        0.28660    0.97540    0.55800    1.000
    O290     O        0.37810    0.93910    0.55570    1.000
    O291     O        0.33330    0.02970    0.57110    1.000
    O292     O        0.27100    0.03480    0.51410    1.000
    O293     O        0.36790    0.99370    0.51610    1.000
    O294     O        0.35750    0.88160    0.51510    1.000
    O295     O        0.13700    0.97760    0.51960    1.000
    O296     O        0.05540    0.88500    0.55280    1.000
    O297     O        0.27790    0.79270    0.55060    1.000
    O298     O        0.15920    0.74830    0.60660    1.000
    O299     O        0.06320    0.78920    0.61250    1.000
    O300     O        0.98490    0.75830    0.58410    1.000
    O301     O        0.07560    0.72820    0.57500    1.000
    O302     O        0.20930    0.74200    0.55080    1.000
    O303     O        0.11840    0.78040    0.55020    1.000
    O304     O        0.02750    0.81870    0.55050    1.000
    O305     O        0.11290    0.83770    0.51750    1.000
    O306     O        0.19420    0.80400    0.51660    1.000
    O307     O        0.27810    0.79310    0.48200    1.000
    O308     O        0.05840    0.88470    0.48400    1.000
    O309     O        0.02010    0.92450    0.43250    1.000
    O310     O        0.14730    0.87840    0.45320    1.000
    O311     O        0.22500    0.84350    0.45160    1.000
    O312     O        0.34140    0.78500    0.42780    1.000
    O313     O        0.32360    0.84740    0.46210    1.000
    O314     O        0.10630    0.93990    0.46660    1.000
    O315     O        0.20410    0.94340    0.47880    1.000
    O316     O        0.28160    0.90850    0.47690    1.000
    O317     O        0.37400    0.93800    0.47430    1.000
    O318     O        0.28510    0.97420    0.47560    1.000
    O319     O        0.19570    0.01600    0.47920    1.000
    O320     O        0.33160    0.02910    0.45850    1.000
    O321     O        0.35030    0.97230    0.42040    1.000
    O322     O        0.24790    0.01310    0.42120    1.000
    O323     O        0.16450    0.97980    0.42260    1.000
    O324     O        0.25370    0.94180    0.42240    1.000
    O325     O        0.34660    0.90390    0.42010    1.000
    O326     O        0.28820    0.83840    0.39590    1.000
    O327     O        0.19680    0.87510    0.39800    1.000
    O328     O        0.11070    0.91600    0.39680    1.000
    O329     O        0.06370    0.85980    0.42110    1.000
    O330     O        0.15170    0.82330    0.41970    1.000
    O331     O        0.24000    0.78270    0.41690    1.000
    O332     O        0.20930    0.74190    0.48370    1.000
    O333     O        0.11940    0.78160    0.48570    1.000
    O334     O        0.02560    0.81850    0.48340    1.000
    O335     O        0.03450    0.75880    0.51710    1.000
    O336     O        0.13400    0.71680    0.51440    1.000
    O337     O        0.07510    0.72960    0.45750    1.000
    O338     O        0.05720    0.78980    0.42630    1.000
    O339     O        0.15640    0.75060    0.42200    1.000
    O340     O        0.11780    0.78750    0.36920    1.000
    O341     O        0.11080    0.85780    0.36170    1.000
    O342     O        0.21370    0.81570    0.35850    1.000
    O343     O        0.19950    0.87870    0.33200    1.000
    O344     O        0.18820    0.94010    0.36530    1.000
    O345     O        0.28660    0.90290    0.36490    1.000
    O346     O        0.27750    0.97180    0.36770    1.000
    N73      N        0.84730    0.93060    0.60700    1.000
    H253     H        0.85710    0.94950    0.61270    1.000
    N74      N        0.80990    0.91790    0.62580    1.000
    N75      N        0.84130    0.79340    0.55290    1.000
    H254     H        0.83050    0.77820    0.53850    1.000
    N76      N        0.88210    0.78710    0.57340    1.000
    N77      N        0.94410    0.68820    0.59110    1.000
    N78      N        0.98790    0.68060    0.57220    1.000
    H255     H        0.99850    0.69160    0.55440    1.000
    C181     C        0.01110    0.65150    0.58800    1.000
    C182     C        0.98170    0.64120    0.61660    1.000
    C183     C        0.94030    0.66390    0.61850    1.000
    N79      N        0.18750    0.75840    0.73390    1.000
    H256     H        0.20700    0.77030    0.72100    1.000
    N80      N        0.17830    0.72330    0.73030    1.000
    N81      N        0.43500    0.94420    0.02180    1.000
    N82      N        0.39060    0.92970    0.02680    1.000
    H257     H        0.36920    0.93730    0.04140    1.000
    N83      N        0.44000    0.85050    0.90410    1.000
    N84      N        0.47280    0.83710    0.92650    1.000
    H258     H        0.49100    0.81970    0.92080    1.000
    N85      N        0.43410    0.76260    0.80810    1.000
    H259     H        0.46240    0.75840    0.81750    1.000
    N86      N        0.40490    0.79320    0.81510    1.000
    N87      N        0.28460    0.72140    0.71560    1.000
    N88      N        0.31100    0.74260    0.69210    1.000
    H260     H        0.30540    0.74420    0.67030    1.000
    N89      N        0.24930    0.67730    0.61960    1.000
    H261     H        0.22090    0.68590    0.61430    1.000
    N90      N        0.26670    0.67630    0.65210    1.000
    C184     C        0.90660    0.91270    0.56750    1.000
    H262     H        0.91300    0.93720    0.56610    1.000
    H263     H        0.89890    0.90390    0.54490    1.000
    H264     H        0.93540    0.90100    0.57630    1.000
    C185     C        0.86920    0.90710    0.58820    1.000
    C186     C        0.84160    0.87350    0.59590    1.000
    C187     C        0.80570    0.88660    0.62040    1.000
    C188     C        0.76800    0.85830    0.63530    1.000
    H265     H        0.74100    0.85520    0.61950    1.000
    H266     H        0.75540    0.86600    0.65720    1.000
    H267     H        0.78490    0.83650    0.63830    1.000
    C189     C        0.77470    0.83270    0.53620    1.000
    H268     H        0.75770    0.81210    0.52870    1.000
    H269     H        0.78390    0.84640    0.51650    1.000
    H270     H        0.75320    0.84610    0.55090    1.000
    C190     C        0.82110    0.82240    0.55630    1.000
    C191     C        0.85100    0.84020    0.57960    1.000
    C192     C        0.88780    0.81860    0.58950    1.000
    C193     C        0.92880    0.82690    0.61490    1.000
    H271     H        0.93640    0.80650    0.62820    1.000
    H272     H        0.91820    0.84520    0.63010    1.000
    H273     H        0.95770    0.83430    0.60250    1.000
    C194     C        0.05640    0.63820    0.57250    1.000
    H274     H        0.04830    0.62030    0.55610    1.000
    H275     H        0.07730    0.62880    0.59020    1.000
    H276     H        0.07330    0.65680    0.56090    1.000
    C195     C        0.89900    0.65950    0.64100    1.000
    H277     H        0.90700    0.66850    0.66340    1.000
    H278     H        0.89120    0.63520    0.64280    1.000
    H279     H        0.87100    0.67180    0.63190    1.000
    C196     C        0.97280    0.56180    0.59080    1.000
    H280     H        0.94130    0.57110    0.58400    1.000
    H281     H        0.97100    0.53680    0.59150    1.000
    H282     H        0.99760    0.56870    0.57440    1.000
    C197     C        0.00250    0.61300    0.66960    1.000
    C198     C        0.98860    0.61080    0.63430    1.000
    C199     C        0.98610    0.57500    0.62520    1.000
    N91      N        0.99840    0.55520    0.65490    1.000
    N92      N        0.00850    0.57860    0.68230    1.000
    H283     H        0.01690    0.57300    0.70300    1.000
    C200     C        0.01000    0.64440    0.69730    1.000
    H284     H        0.03400    0.66070    0.68850    1.000
    H285     H        0.02190    0.63500    0.71870    1.000
    H286     H        0.97920    0.65610    0.70100    1.000
    C201     C        0.02200    0.73950    0.78810    1.000
    H287     H        0.01820    0.76210    0.77800    1.000
    H288     H        0.99220    0.73250    0.79920    1.000
    H289     H        0.03060    0.72300    0.77040    1.000
    C202     C        0.11310    0.74570    0.80980    1.000
    C203     C        0.13330    0.74830    0.84360    1.000
    N93      N        0.09390    0.74490    0.86760    1.000
    N94      N        0.04940    0.74010    0.84870    1.000
    H290     H        0.02030    0.73740    0.85730    1.000
    C204     C        0.06130    0.74060    0.81300    1.000
    C205     C        0.18130    0.75070    0.84900    1.000
    H291     H        0.19750    0.73060    0.83960    1.000
    H292     H        0.18760    0.75200    0.87330    1.000
    H293     H        0.19390    0.77120    0.83790    1.000
    C206     C        0.17270    0.80890    0.77130    1.000
    H294     H        0.20740    0.81170    0.77580    1.000
    H295     H        0.15430    0.81400    0.79190    1.000
    H296     H        0.16290    0.82460    0.75320    1.000
    C207     C        0.16220    0.77110    0.75990    1.000
    C208     C        0.13900    0.74840    0.77650    1.000
    C209     C        0.14710    0.71480    0.75780    1.000
    C210     C        0.12780    0.67790    0.76130    1.000
    H297     H        0.14520    0.66300    0.74560    1.000
    H298     H        0.09310    0.67750    0.75610    1.000
    H299     H        0.13300    0.66990    0.78450    1.000
    C211     C        0.51030    0.93600    0.98770    1.000
    H300     H        0.51920    0.95850    0.99670    1.000
    H301     H        0.51430    0.93600    0.96310    1.000
    H302     H        0.53130    0.91860    0.99770    1.000
    C212     C        0.45840    0.92850    0.99640    1.000
    C213     C        0.42870    0.90080    0.98480    1.000
    C214     C        0.38350    0.90260    0.00660    1.000
    C215     C        0.33780    0.88180    0.00480    1.000
    H303     H        0.34320    0.85970    0.01570    1.000
    H304     H        0.32890    0.87830    0.98110    1.000
    H305     H        0.31160    0.89390    0.01650    1.000
    C216     C        0.37620    0.89490    0.91000    1.000
    H306     H        0.38610    0.90580    0.88880    1.000
    H307     H        0.36550    0.91230    0.92600    1.000
    H308     H        0.34950    0.87900    0.90550    1.000
    C217     C        0.41590    0.87670    0.92380    1.000
    C218     C        0.43740    0.87510    0.96030    1.000
    C219     C        0.47630    0.85080    0.95640    1.000
    C220     C        0.50740    0.83940    0.98530    1.000
    H309     H        0.52140    0.81700    0.98010    1.000
    H310     H        0.48760    0.83780    0.00580    1.000
    H311     H        0.53350    0.85590    0.98890    1.000
    C221     C        0.32510    0.81170    0.79180    1.000
    H312     H        0.31550    0.81740    0.81500    1.000
    H313     H        0.29900    0.79890    0.78080    1.000
    H314     H        0.33120    0.83270    0.77910    1.000
    C222     C        0.36930    0.79100    0.79250    1.000
    C223     C        0.37670    0.76120    0.77110    1.000
    C224     C        0.41300    0.74220    0.78600    1.000
    C225     C        0.43940    0.70810    0.77490    1.000
    H315     H        0.47010    0.71370    0.76370    1.000
    H316     H        0.41860    0.69550    0.75920    1.000
    H317     H        0.44580    0.69410    0.79490    1.000
    C226     C        0.28010    0.70780    0.77580    1.000
    H318     H        0.24750    0.69960    0.77000    1.000
    H319     H        0.27800    0.72360    0.79490    1.000
    H320     H        0.30060    0.68840    0.78210    1.000
    C227     C        0.30220    0.72610    0.74520    1.000
    C228     C        0.34100    0.75210    0.74510    1.000
    C229     C        0.34790    0.76060    0.71030    1.000
    C230     C        0.37650    0.78400    0.69540    1.000
    H321     H        0.40910    0.78290    0.70520    1.000
    H322     H        0.36290    0.80680    0.69900    1.000
    H323     H        0.37830    0.77930    0.67100    1.000
    C231     C        0.34660    0.65800    0.67770    1.000
    H324     H        0.37040    0.67650    0.67710    1.000
    H325     H        0.36340    0.63600    0.67730    1.000
    H326     H        0.32720    0.65980    0.69840    1.000
    C232     C        0.31370    0.66070    0.64720    1.000
    C233     C        0.32230    0.65290    0.61380    1.000
    C234     C        0.28070    0.66350    0.59560    1.000
    C235     C        0.26890    0.65870    0.55620    1.000
    H327     H        0.23570    0.65020    0.55360    1.000
    H328     H        0.29170    0.64230    0.54640    1.000
    H329     H        0.27210    0.68070    0.54460    1.000
    C236     C        0.40110    0.68370    0.55320    1.000
    H330     H        0.41820    0.69990    0.56770    1.000
    H331     H        0.36880    0.69270    0.54770    1.000
    H332     H        0.41950    0.68030    0.53230    1.000
    C237     C        0.37450    0.60050    0.60440    1.000
    N95      N        0.41400    0.59100    0.58210    1.000
    N96      N        0.42710    0.62060    0.56230    1.000
    H333     H        0.45000    0.62160    0.54690    1.000
    C238     C        0.39570    0.64850    0.57230    1.000
    C239     C        0.36320    0.63600    0.59830    1.000
    C240     C        0.35300    0.57500    0.62770    1.000
    H334     H        0.35480    0.55230    0.61750    1.000
    H335     H        0.31900    0.58090    0.63200    1.000
    H336     H        0.37100    0.57510    0.64910    1.000
    O347     O        0.18140    0.88950    0.51860    1.000
    K8       K        0.14970    0.90120    0.51800    1.000
    O348     O        0.22800    0.87040    0.51360    1.000
    W121     W        0.17512    0.43190    0.64476    1.000
    W122     W        0.27277    0.48472    0.64283    1.000
    W123     W        0.34251    0.40455    0.67422    1.000
    W124     W        0.24504    0.35139    0.67532    1.000
    W125     W        0.31215    0.27410    0.63890    1.000
    W126     W        0.41207    0.32311    0.64989    1.000
    W127     W        0.42316    0.40059    0.59653    1.000
    W128     W        0.20477    0.31267    0.59400    1.000
    W129     W        0.13781    0.39106    0.56173    1.000
    W130     W        0.35422    0.48018    0.56792    1.000
    W131     W        0.23784    0.53117    0.56084    1.000
    W132     W        0.13289    0.48513    0.56840    1.000
    W133     W        0.13322    0.48626    0.47009    1.000
    W134     W        0.23790    0.53093    0.46274    1.000
    W135     W        0.35389    0.48320    0.47122    1.000
    W136     W        0.14012    0.38990    0.46501    1.000
    W137     W        0.21066    0.31092    0.43726    1.000
    W138     W        0.42205    0.40435    0.44062    1.000
    W139     W        0.46606    0.35359    0.51680    1.000
    W140     W        0.24953    0.26298    0.51669    1.000
    W141     W        0.35608    0.22478    0.56010    1.000
    W142     W        0.45664    0.27391    0.57022    1.000
    W143     W        0.46238    0.26962    0.47338    1.000
    W144     W        0.35356    0.22907    0.46391    1.000
    W145     W        0.31451    0.28060    0.38521    1.000
    W146     W        0.42399    0.32032    0.39367    1.000
    W147     W        0.35576    0.39762    0.35888    1.000
    W148     W        0.24467    0.36042    0.35874    1.000
    W149     W        0.17507    0.44017    0.38961    1.000
    W150     W        0.28581    0.47768    0.38831    1.000
    Co17     Co       0.54172    0.45372    0.42383    1.000
    Co18     Co       0.58870    0.23744    0.58071    1.000
    Co19     Co       0.27719    0.19569    0.69312    1.000
    Co20     Co       0.07824    0.32356    0.85903    1.000
    K9       K        0.24170    0.35607    0.51519    1.000
    P21      P        0.31510    0.35507    0.60280    1.000
    P22      P        0.24080    0.44122    0.56890    1.000
    P23      P        0.24410    0.44146    0.46360    1.000
    P24      P        0.31910    0.35558    0.43080    1.000
    P25      P        0.36380    0.30197    0.51700    1.000
    O349     O        0.29240    0.37800    0.69990    1.000
    O350     O        0.30320    0.44320    0.66930    1.000
    O351     O        0.20870    0.39820    0.66760    1.000
    O352     O        0.21370    0.47030    0.66500    1.000
    O353     O        0.14560    0.47220    0.61140    1.000
    O354     O        0.24490    0.51510    0.61230    1.000
    O355     O        0.32940    0.47940    0.61390    1.000
    O356     O        0.23940    0.44170    0.60950    1.000
    O357     O        0.14940    0.40280    0.61020    1.000
    O358     O        0.20670    0.33750    0.63600    1.000
    O359     O        0.29680    0.37440    0.63530    1.000
    O360     O        0.38680    0.41290    0.63930    1.000
    O361     O        0.37890    0.35580    0.67430    1.000
    O362     O        0.28210    0.31150    0.67190    1.000
    O363     O        0.28910    0.24080    0.66490    1.000
    O364     O        0.37230    0.28420    0.66350    1.000
    O365     O        0.43440    0.35670    0.61730    1.000
    O366     O        0.34240    0.32120    0.61510    1.000
    O367     O        0.25520    0.28360    0.61410    1.000
    O368     O        0.27000    0.34490    0.58060    1.000
    O369     O        0.35050    0.37730    0.58050    1.000
    O370     O        0.39090    0.43950    0.57200    1.000
    O371     O        0.17310    0.34750    0.56770    1.000
    O372     O        0.21530    0.40930    0.55490    1.000
    O373     O        0.29460    0.44360    0.55680    1.000
    O374     O        0.39960    0.51090    0.57690    1.000
    O375     O        0.30290    0.51370    0.55830    1.000
    O376     O        0.21340    0.47540    0.55800    1.000
    O377     O        0.12190    0.43910    0.55570    1.000
    O378     O        0.16670    0.52970    0.57110    1.000
    O379     O        0.22900    0.53480    0.51410    1.000
    O380     O        0.13210    0.49370    0.51610    1.000
    O381     O        0.14250    0.38160    0.51510    1.000
    O382     O        0.36300    0.47760    0.51960    1.000
    O383     O        0.44460    0.38500    0.55280    1.000
    O384     O        0.22210    0.29270    0.55060    1.000
    O385     O        0.34080    0.24830    0.60660    1.000
    O386     O        0.43680    0.28920    0.61250    1.000
    O387     O        0.51510    0.25830    0.58410    1.000
    O388     O        0.42440    0.22820    0.57500    1.000
    O389     O        0.29070    0.24200    0.55080    1.000
    O390     O        0.38160    0.28040    0.55020    1.000
    O391     O        0.47250    0.31870    0.55050    1.000
    O392     O        0.38710    0.33770    0.51750    1.000
    O393     O        0.30580    0.30400    0.51660    1.000
    O394     O        0.22190    0.29310    0.48200    1.000
    O395     O        0.44160    0.38470    0.48400    1.000
    O396     O        0.47990    0.42450    0.43250    1.000
    O397     O        0.35270    0.37840    0.45320    1.000
    O398     O        0.27500    0.34350    0.45160    1.000
    O399     O        0.15860    0.28500    0.42780    1.000
    O400     O        0.17640    0.34740    0.46210    1.000
    O401     O        0.39370    0.43990    0.46660    1.000
    O402     O        0.29590    0.44340    0.47880    1.000
    O403     O        0.21840    0.40850    0.47690    1.000
    O404     O        0.12600    0.43800    0.47430    1.000
    O405     O        0.21490    0.47420    0.47560    1.000
    O406     O        0.30430    0.51600    0.47920    1.000
    O407     O        0.16840    0.52910    0.45850    1.000
    O408     O        0.14970    0.47230    0.42040    1.000
    O409     O        0.25210    0.51310    0.42120    1.000
    O410     O        0.33550    0.47980    0.42260    1.000
    O411     O        0.24630    0.44180    0.42240    1.000
    O412     O        0.15340    0.40390    0.42010    1.000
    O413     O        0.21180    0.33840    0.39590    1.000
    O414     O        0.30320    0.37510    0.39800    1.000
    O415     O        0.38930    0.41600    0.39680    1.000
    O416     O        0.43630    0.35980    0.42110    1.000
    O417     O        0.34830    0.32330    0.41970    1.000
    O418     O        0.26000    0.28270    0.41690    1.000
    O419     O        0.29070    0.24190    0.48370    1.000
    O420     O        0.38060    0.28160    0.48570    1.000
    O421     O        0.47440    0.31850    0.48340    1.000
    O422     O        0.46550    0.25880    0.51710    1.000
    O423     O        0.36600    0.21680    0.51440    1.000
    O424     O        0.42490    0.22960    0.45750    1.000
    O425     O        0.44280    0.28980    0.42630    1.000
    O426     O        0.34360    0.25060    0.42200    1.000
    O427     O        0.38220    0.28750    0.36920    1.000
    O428     O        0.38920    0.35780    0.36170    1.000
    O429     O        0.28630    0.31570    0.35850    1.000
    O430     O        0.30050    0.37870    0.33200    1.000
    O431     O        0.31180    0.44010    0.36530    1.000
    O432     O        0.21340    0.40290    0.36490    1.000
    O433     O        0.22250    0.47180    0.36770    1.000
    N97      N        0.65270    0.43060    0.60700    1.000
    H337     H        0.64290    0.44950    0.61270    1.000
    N98      N        0.69010    0.41790    0.62580    1.000
    N99      N        0.65870    0.29340    0.55290    1.000
    H338     H        0.66950    0.27820    0.53850    1.000
    N100     N        0.61790    0.28710    0.57340    1.000
    N101     N        0.55590    0.18820    0.59110    1.000
    N102     N        0.51210    0.18060    0.57220    1.000
    H339     H        0.50150    0.19160    0.55440    1.000
    C241     C        0.48890    0.15150    0.58800    1.000
    C242     C        0.51830    0.14120    0.61660    1.000
    C243     C        0.55970    0.16390    0.61850    1.000
    N103     N        0.31250    0.25840    0.73390    1.000
    H340     H        0.29300    0.27030    0.72100    1.000
    N104     N        0.32170    0.22330    0.73030    1.000
    N105     N        0.06500    0.44420    0.02180    1.000
    N106     N        0.10940    0.42970    0.02680    1.000
    H341     H        0.13080    0.43730    0.04140    1.000
    N107     N        0.06000    0.35050    0.90410    1.000
    N108     N        0.02720    0.33710    0.92650    1.000
    H342     H        0.00900    0.31970    0.92080    1.000
    N109     N        0.06590    0.26260    0.80810    1.000
    H343     H        0.03760    0.25840    0.81750    1.000
    N110     N        0.09510    0.29320    0.81510    1.000
    N111     N        0.21540    0.22140    0.71560    1.000
    N112     N        0.18900    0.24260    0.69210    1.000
    H344     H        0.19460    0.24420    0.67030    1.000
    N113     N        0.25070    0.17730    0.61960    1.000
    H345     H        0.27910    0.18590    0.61430    1.000
    N114     N        0.23330    0.17630    0.65210    1.000
    C244     C        0.59340    0.41270    0.56750    1.000
    H346     H        0.58700    0.43720    0.56610    1.000
    H347     H        0.60110    0.40390    0.54490    1.000
    H348     H        0.56460    0.40100    0.57630    1.000
    C245     C        0.63080    0.40710    0.58820    1.000
    C246     C        0.65840    0.37350    0.59590    1.000
    C247     C        0.69430    0.38660    0.62040    1.000
    C248     C        0.73200    0.35830    0.63530    1.000
    H349     H        0.75900    0.35520    0.61950    1.000
    H350     H        0.74460    0.36600    0.65720    1.000
    H351     H        0.71510    0.33650    0.63830    1.000
    C249     C        0.72530    0.33270    0.53620    1.000
    H352     H        0.74230    0.31210    0.52870    1.000
    H353     H        0.71610    0.34640    0.51650    1.000
    H354     H        0.74680    0.34610    0.55090    1.000
    C250     C        0.67890    0.32240    0.55630    1.000
    C251     C        0.64900    0.34020    0.57960    1.000
    C252     C        0.61220    0.31860    0.58950    1.000
    C253     C        0.57120    0.32690    0.61490    1.000
    H355     H        0.56360    0.30650    0.62820    1.000
    H356     H        0.58180    0.34520    0.63010    1.000
    H357     H        0.54230    0.33430    0.60250    1.000
    C254     C        0.44360    0.13820    0.57250    1.000
    H358     H        0.45170    0.12030    0.55610    1.000
    H359     H        0.42270    0.12880    0.59020    1.000
    H360     H        0.42670    0.15680    0.56090    1.000
    C255     C        0.60100    0.15950    0.64100    1.000
    H361     H        0.59300    0.16850    0.66340    1.000
    H362     H        0.60880    0.13520    0.64280    1.000
    H363     H        0.62900    0.17180    0.63190    1.000
    C256     C        0.52720    0.06180    0.59080    1.000
    H364     H        0.55870    0.07110    0.58400    1.000
    H365     H        0.52900    0.03680    0.59150    1.000
    H366     H        0.50240    0.06870    0.57440    1.000
    C257     C        0.49750    0.11300    0.66960    1.000
    C258     C        0.51140    0.11080    0.63430    1.000
    C259     C        0.51390    0.07500    0.62520    1.000
    N115     N        0.50160    0.05520    0.65490    1.000
    N116     N        0.49150    0.07860    0.68230    1.000
    H367     H        0.48310    0.07300    0.70300    1.000
    C260     C        0.49000    0.14440    0.69730    1.000
    H368     H        0.46600    0.16070    0.68850    1.000
    H369     H        0.47810    0.13500    0.71870    1.000
    H370     H        0.52080    0.15610    0.70100    1.000
    C261     C        0.47800    0.23950    0.78810    1.000
    H371     H        0.48180    0.26210    0.77800    1.000
    H372     H        0.50780    0.23250    0.79920    1.000
    H373     H        0.46940    0.22300    0.77040    1.000
    C262     C        0.38690    0.24570    0.80980    1.000
    C263     C        0.36670    0.24830    0.84360    1.000
    N117     N        0.40610    0.24490    0.86760    1.000
    N118     N        0.45060    0.24010    0.84870    1.000
    H374     H        0.47970    0.23740    0.85730    1.000
    C264     C        0.43870    0.24060    0.81300    1.000
    C265     C        0.31870    0.25070    0.84900    1.000
    H375     H        0.30250    0.23060    0.83960    1.000
    H376     H        0.31240    0.25200    0.87330    1.000
    H377     H        0.30610    0.27120    0.83790    1.000
    C266     C        0.32730    0.30890    0.77130    1.000
    H378     H        0.29260    0.31170    0.77580    1.000
    H379     H        0.34570    0.31400    0.79190    1.000
    H380     H        0.33710    0.32460    0.75320    1.000
    C267     C        0.33780    0.27110    0.75990    1.000
    C268     C        0.36100    0.24840    0.77650    1.000
    C269     C        0.35290    0.21480    0.75780    1.000
    C270     C        0.37220    0.17790    0.76130    1.000
    H381     H        0.35480    0.16300    0.74560    1.000
    H382     H        0.40690    0.17750    0.75610    1.000
    H383     H        0.36700    0.16990    0.78450    1.000
    C271     C        0.98970    0.43600    0.98770    1.000
    H384     H        0.98080    0.45850    0.99670    1.000
    H385     H        0.98570    0.43600    0.96310    1.000
    H386     H        0.96870    0.41860    0.99770    1.000
    C272     C        0.04160    0.42850    0.99640    1.000
    C273     C        0.07130    0.40080    0.98480    1.000
    C274     C        0.11650    0.40260    0.00660    1.000
    C275     C        0.16220    0.38180    0.00480    1.000
    H387     H        0.15680    0.35970    0.01570    1.000
    H388     H        0.17110    0.37830    0.98110    1.000
    H389     H        0.18840    0.39390    0.01650    1.000
    C276     C        0.12380    0.39490    0.91000    1.000
    H390     H        0.11390    0.40580    0.88880    1.000
    H391     H        0.13450    0.41230    0.92600    1.000
    H392     H        0.15050    0.37900    0.90550    1.000
    C277     C        0.08410    0.37670    0.92380    1.000
    C278     C        0.06260    0.37510    0.96030    1.000
    C279     C        0.02370    0.35080    0.95640    1.000
    C280     C        0.99260    0.33940    0.98530    1.000
    H393     H        0.97860    0.31700    0.98010    1.000
    H394     H        0.01240    0.33780    0.00580    1.000
    H395     H        0.96650    0.35590    0.98890    1.000
    C281     C        0.17490    0.31170    0.79180    1.000
    H396     H        0.18450    0.31740    0.81500    1.000
    H397     H        0.20100    0.29890    0.78080    1.000
    H398     H        0.16880    0.33270    0.77910    1.000
    C282     C        0.13070    0.29100    0.79250    1.000
    C283     C        0.12330    0.26120    0.77110    1.000
    C284     C        0.08700    0.24220    0.78600    1.000
    C285     C        0.06060    0.20810    0.77490    1.000
    H399     H        0.02990    0.21370    0.76370    1.000
    H400     H        0.08140    0.19550    0.75920    1.000
    H401     H        0.05420    0.19410    0.79490    1.000
    C286     C        0.21990    0.20780    0.77580    1.000
    H402     H        0.25250    0.19960    0.77000    1.000
    H403     H        0.22200    0.22360    0.79490    1.000
    H404     H        0.19940    0.18840    0.78210    1.000
    C287     C        0.19780    0.22610    0.74520    1.000
    C288     C        0.15900    0.25210    0.74510    1.000
    C289     C        0.15210    0.26060    0.71030    1.000
    C290     C        0.12350    0.28400    0.69540    1.000
    H405     H        0.09090    0.28290    0.70520    1.000
    H406     H        0.13710    0.30680    0.69900    1.000
    H407     H        0.12170    0.27930    0.67100    1.000
    C291     C        0.15340    0.15800    0.67770    1.000
    H408     H        0.12960    0.17650    0.67710    1.000
    H409     H        0.13660    0.13600    0.67730    1.000
    H410     H        0.17280    0.15980    0.69840    1.000
    C292     C        0.18630    0.16070    0.64720    1.000
    C293     C        0.17770    0.15290    0.61380    1.000
    C294     C        0.21930    0.16350    0.59560    1.000
    C295     C        0.23110    0.15870    0.55620    1.000
    H411     H        0.26430    0.15020    0.55360    1.000
    H412     H        0.20830    0.14230    0.54640    1.000
    H413     H        0.22790    0.18070    0.54460    1.000
    C296     C        0.09890    0.18370    0.55320    1.000
    H414     H        0.08180    0.19990    0.56770    1.000
    H415     H        0.13120    0.19270    0.54770    1.000
    H416     H        0.08050    0.18030    0.53230    1.000
    C297     C        0.12550    0.10050    0.60440    1.000
    N119     N        0.08600    0.09100    0.58210    1.000
    N120     N        0.07290    0.12060    0.56230    1.000
    H417     H        0.05000    0.12160    0.54690    1.000
    C298     C        0.10430    0.14850    0.57230    1.000
    C299     C        0.13680    0.13600    0.59830    1.000
    C300     C        0.14700    0.07500    0.62770    1.000
    H418     H        0.14520    0.05230    0.61750    1.000
    H419     H        0.18100    0.08090    0.63200    1.000
    H420     H        0.12900    0.07510    0.64910    1.000
    O434     O        0.31860    0.38950    0.51860    1.000
    K10      K        0.35030    0.40120    0.51800    1.000
    O435     O        0.27200    0.37040    0.51360    1.000
    W151     W        0.32488    0.06810    0.14476    1.000
    W152     W        0.22723    0.01528    0.14283    1.000
    W153     W        0.15749    0.09545    0.17422    1.000
    W154     W        0.25496    0.14861    0.17532    1.000
    W155     W        0.18785    0.22590    0.13890    1.000
    W156     W        0.08793    0.17689    0.14989    1.000
    W157     W        0.07684    0.09941    0.09653    1.000
    W158     W        0.29523    0.18733    0.09400    1.000
    W159     W        0.36219    0.10894    0.06173    1.000
    W160     W        0.14578    0.01982    0.06792    1.000
    W161     W        0.26216    0.96883    0.06084    1.000
    W162     W        0.36711    0.01487    0.06840    1.000
    W163     W        0.36678    0.01374    0.97009    1.000
    W164     W        0.26210    0.96907    0.96274    1.000
    W165     W        0.14611    0.01680    0.97122    1.000
    W166     W        0.35988    0.11010    0.96501    1.000
    W167     W        0.28934    0.18908    0.93726    1.000
    W168     W        0.07795    0.09565    0.94062    1.000
    W169     W        0.03394    0.14641    0.01680    1.000
    W170     W        0.25047    0.23702    0.01669    1.000
    W171     W        0.14392    0.27522    0.06010    1.000
    W172     W        0.04336    0.22609    0.07022    1.000
    W173     W        0.03762    0.23038    0.97338    1.000
    W174     W        0.14644    0.27093    0.96391    1.000
    W175     W        0.18549    0.21940    0.88521    1.000
    W176     W        0.07601    0.17968    0.89367    1.000
    W177     W        0.14424    0.10238    0.85888    1.000
    W178     W        0.25533    0.13958    0.85874    1.000
    W179     W        0.32493    0.05983    0.88961    1.000
    W180     W        0.21419    0.02232    0.88831    1.000
    Co21     Co       0.95828    0.04628    0.92383    1.000
    Co22     Co       0.91130    0.26256    0.08071    1.000
    Co23     Co       0.22281    0.30431    0.19312    1.000
    Co24     Co       0.42176    0.17644    0.35903    1.000
    K11      K        0.25830    0.14393    0.01519    1.000
    P26      P        0.18490    0.14493    0.10280    1.000
    P27      P        0.25920    0.05878    0.06890    1.000
    P28      P        0.25590    0.05854    0.96360    1.000
    P29      P        0.18090    0.14442    0.93080    1.000
    P30      P        0.13620    0.19803    0.01700    1.000
    O436     O        0.20760    0.12200    0.19990    1.000
    O437     O        0.19680    0.05680    0.16930    1.000
    O438     O        0.29130    0.10180    0.16760    1.000
    O439     O        0.28630    0.02970    0.16500    1.000
    O440     O        0.35440    0.02780    0.11140    1.000
    O441     O        0.25510    0.98490    0.11230    1.000
    O442     O        0.17060    0.02060    0.11390    1.000
    O443     O        0.26060    0.05830    0.10950    1.000
    O444     O        0.35060    0.09720    0.11020    1.000
    O445     O        0.29330    0.16250    0.13600    1.000
    O446     O        0.20320    0.12560    0.13530    1.000
    O447     O        0.11320    0.08710    0.13930    1.000
    O448     O        0.12110    0.14420    0.17430    1.000
    O449     O        0.21790    0.18850    0.17190    1.000
    O450     O        0.21090    0.25920    0.16490    1.000
    O451     O        0.12770    0.21580    0.16350    1.000
    O452     O        0.06560    0.14330    0.11730    1.000
    O453     O        0.15760    0.17880    0.11510    1.000
    O454     O        0.24480    0.21640    0.11410    1.000
    O455     O        0.23000    0.15510    0.08060    1.000
    O456     O        0.14950    0.12270    0.08050    1.000
    O457     O        0.10910    0.06050    0.07200    1.000
    O458     O        0.32690    0.15250    0.06770    1.000
    O459     O        0.28470    0.09070    0.05490    1.000
    O460     O        0.20540    0.05640    0.05680    1.000
    O461     O        0.10040    0.98910    0.07690    1.000
    O462     O        0.19710    0.98630    0.05830    1.000
    O463     O        0.28660    0.02460    0.05800    1.000
    O464     O        0.37810    0.06090    0.05570    1.000
    O465     O        0.33330    0.97030    0.07110    1.000
    O466     O        0.27100    0.96520    0.01410    1.000
    O467     O        0.36790    0.00630    0.01610    1.000
    O468     O        0.35750    0.11840    0.01510    1.000
    O469     O        0.13700    0.02240    0.01960    1.000
    O470     O        0.05540    0.11500    0.05280    1.000
    O471     O        0.27790    0.20730    0.05060    1.000
    O472     O        0.15920    0.25170    0.10660    1.000
    O473     O        0.06320    0.21080    0.11250    1.000
    O474     O        0.98490    0.24170    0.08410    1.000
    O475     O        0.07560    0.27180    0.07500    1.000
    O476     O        0.20930    0.25800    0.05080    1.000
    O477     O        0.11840    0.21960    0.05020    1.000
    O478     O        0.02750    0.18130    0.05050    1.000
    O479     O        0.11290    0.16230    0.01750    1.000
    O480     O        0.19420    0.19600    0.01660    1.000
    O481     O        0.27810    0.20690    0.98200    1.000
    O482     O        0.05840    0.11530    0.98400    1.000
    O483     O        0.02010    0.07550    0.93250    1.000
    O484     O        0.14730    0.12160    0.95320    1.000
    O485     O        0.22500    0.15650    0.95160    1.000
    O486     O        0.34140    0.21500    0.92780    1.000
    O487     O        0.32360    0.15260    0.96210    1.000
    O488     O        0.10630    0.06010    0.96660    1.000
    O489     O        0.20410    0.05660    0.97880    1.000
    O490     O        0.28160    0.09150    0.97690    1.000
    O491     O        0.37400    0.06200    0.97430    1.000
    O492     O        0.28510    0.02580    0.97560    1.000
    O493     O        0.19570    0.98400    0.97920    1.000
    O494     O        0.33160    0.97090    0.95850    1.000
    O495     O        0.35030    0.02770    0.92040    1.000
    O496     O        0.24790    0.98690    0.92120    1.000
    O497     O        0.16450    0.02020    0.92260    1.000
    O498     O        0.25370    0.05820    0.92240    1.000
    O499     O        0.34660    0.09610    0.92010    1.000
    O500     O        0.28820    0.16160    0.89590    1.000
    O501     O        0.19680    0.12490    0.89800    1.000
    O502     O        0.11070    0.08400    0.89680    1.000
    O503     O        0.06370    0.14020    0.92110    1.000
    O504     O        0.15170    0.17670    0.91970    1.000
    O505     O        0.24000    0.21730    0.91690    1.000
    O506     O        0.20930    0.25810    0.98370    1.000
    O507     O        0.11940    0.21840    0.98570    1.000
    O508     O        0.02560    0.18150    0.98340    1.000
    O509     O        0.03450    0.24120    0.01710    1.000
    O510     O        0.13400    0.28320    0.01440    1.000
    O511     O        0.07510    0.27040    0.95750    1.000
    O512     O        0.05720    0.21020    0.92630    1.000
    O513     O        0.15640    0.24940    0.92200    1.000
    O514     O        0.11780    0.21250    0.86920    1.000
    O515     O        0.11080    0.14220    0.86170    1.000
    O516     O        0.21370    0.18430    0.85850    1.000
    O517     O        0.19950    0.12130    0.83200    1.000
    O518     O        0.18820    0.05990    0.86530    1.000
    O519     O        0.28660    0.09710    0.86490    1.000
    O520     O        0.27750    0.02820    0.86770    1.000
    N121     N        0.84730    0.06940    0.10700    1.000
    H421     H        0.85710    0.05050    0.11270    1.000
    N122     N        0.80990    0.08210    0.12580    1.000
    N123     N        0.84130    0.20660    0.05290    1.000
    H422     H        0.83050    0.22180    0.03850    1.000
    N124     N        0.88210    0.21290    0.07340    1.000
    N125     N        0.94410    0.31180    0.09110    1.000
    N126     N        0.98790    0.31940    0.07220    1.000
    H423     H        0.99850    0.30840    0.05440    1.000
    C301     C        0.01110    0.34850    0.08800    1.000
    C302     C        0.98170    0.35880    0.11660    1.000
    C303     C        0.94030    0.33610    0.11850    1.000
    N127     N        0.18750    0.24160    0.23390    1.000
    H424     H        0.20700    0.22970    0.22100    1.000
    N128     N        0.17830    0.27670    0.23030    1.000
    N129     N        0.43500    0.05580    0.52180    1.000
    N130     N        0.39060    0.07030    0.52680    1.000
    H425     H        0.36920    0.06270    0.54140    1.000
    N131     N        0.44000    0.14950    0.40410    1.000
    N132     N        0.47280    0.16290    0.42650    1.000
    H426     H        0.49100    0.18030    0.42080    1.000
    N133     N        0.43410    0.23740    0.30810    1.000
    H427     H        0.46240    0.24160    0.31750    1.000
    N134     N        0.40490    0.20680    0.31510    1.000
    N135     N        0.28460    0.27860    0.21560    1.000
    N136     N        0.31100    0.25740    0.19210    1.000
    H428     H        0.30540    0.25580    0.17030    1.000
    N137     N        0.24930    0.32270    0.11960    1.000
    H429     H        0.22090    0.31410    0.11430    1.000
    N138     N        0.26670    0.32370    0.15210    1.000
    C304     C        0.90660    0.08730    0.06750    1.000
    H430     H        0.91300    0.06280    0.06610    1.000
    H431     H        0.89890    0.09610    0.04490    1.000
    H432     H        0.93540    0.09900    0.07630    1.000
    C305     C        0.86920    0.09290    0.08820    1.000
    C306     C        0.84160    0.12650    0.09590    1.000
    C307     C        0.80570    0.11340    0.12040    1.000
    C308     C        0.76800    0.14170    0.13530    1.000
    H433     H        0.74100    0.14480    0.11950    1.000
    H434     H        0.75540    0.13400    0.15720    1.000
    H435     H        0.78490    0.16350    0.13830    1.000
    C309     C        0.77470    0.16730    0.03620    1.000
    H436     H        0.75770    0.18790    0.02870    1.000
    H437     H        0.78390    0.15360    0.01650    1.000
    H438     H        0.75320    0.15390    0.05090    1.000
    C310     C        0.82110    0.17760    0.05630    1.000
    C311     C        0.85100    0.15980    0.07960    1.000
    C312     C        0.88780    0.18140    0.08950    1.000
    C313     C        0.92880    0.17310    0.11490    1.000
    H439     H        0.93640    0.19350    0.12820    1.000
    H440     H        0.91820    0.15480    0.13010    1.000
    H441     H        0.95770    0.16570    0.10250    1.000
    C314     C        0.05640    0.36180    0.07250    1.000
    H442     H        0.04830    0.37970    0.05610    1.000
    H443     H        0.07730    0.37120    0.09020    1.000
    H444     H        0.07330    0.34320    0.06090    1.000
    C315     C        0.89900    0.34050    0.14100    1.000
    H445     H        0.90700    0.33150    0.16340    1.000
    H446     H        0.89120    0.36480    0.14280    1.000
    H447     H        0.87100    0.32820    0.13190    1.000
    C316     C        0.97280    0.43820    0.09080    1.000
    H448     H        0.94130    0.42890    0.08400    1.000
    H449     H        0.97100    0.46320    0.09150    1.000
    H450     H        0.99760    0.43130    0.07440    1.000
    C317     C        0.00250    0.38700    0.16960    1.000
    C318     C        0.98860    0.38920    0.13430    1.000
    C319     C        0.98610    0.42500    0.12520    1.000
    N139     N        0.99840    0.44480    0.15490    1.000
    N140     N        0.00850    0.42140    0.18230    1.000
    H451     H        0.01690    0.42700    0.20300    1.000
    C320     C        0.01000    0.35560    0.19730    1.000
    H452     H        0.03400    0.33930    0.18850    1.000
    H453     H        0.02190    0.36500    0.21870    1.000
    H454     H        0.97920    0.34390    0.20100    1.000
    C321     C        0.02200    0.26050    0.28810    1.000
    H455     H        0.01820    0.23790    0.27800    1.000
    H456     H        0.99220    0.26750    0.29920    1.000
    H457     H        0.03060    0.27700    0.27040    1.000
    C322     C        0.11310    0.25430    0.30980    1.000
    C323     C        0.13330    0.25170    0.34360    1.000
    N141     N        0.09390    0.25510    0.36760    1.000
    N142     N        0.04940    0.25990    0.34870    1.000
    H458     H        0.02030    0.26260    0.35730    1.000
    C324     C        0.06130    0.25940    0.31300    1.000
    C325     C        0.18130    0.24930    0.34900    1.000
    H459     H        0.19750    0.26940    0.33960    1.000
    H460     H        0.18760    0.24800    0.37330    1.000
    H461     H        0.19390    0.22880    0.33790    1.000
    C326     C        0.17270    0.19110    0.27130    1.000
    H462     H        0.20740    0.18830    0.27580    1.000
    H463     H        0.15430    0.18600    0.29190    1.000
    H464     H        0.16290    0.17540    0.25320    1.000
    C327     C        0.16220    0.22890    0.25990    1.000
    C328     C        0.13900    0.25160    0.27650    1.000
    C329     C        0.14710    0.28520    0.25780    1.000
    C330     C        0.12780    0.32210    0.26130    1.000
    H465     H        0.14520    0.33700    0.24560    1.000
    H466     H        0.09310    0.32250    0.25610    1.000
    H467     H        0.13300    0.33010    0.28450    1.000
    C331     C        0.51030    0.06400    0.48770    1.000
    H468     H        0.51920    0.04150    0.49670    1.000
    H469     H        0.51430    0.06400    0.46310    1.000
    H470     H        0.53130    0.08140    0.49770    1.000
    C332     C        0.45840    0.07150    0.49640    1.000
    C333     C        0.42870    0.09920    0.48480    1.000
    C334     C        0.38350    0.09740    0.50660    1.000
    C335     C        0.33780    0.11820    0.50480    1.000
    H471     H        0.34320    0.14030    0.51570    1.000
    H472     H        0.32890    0.12170    0.48110    1.000
    H473     H        0.31160    0.10610    0.51650    1.000
    C336     C        0.37620    0.10510    0.41000    1.000
    H474     H        0.38610    0.09420    0.38880    1.000
    H475     H        0.36550    0.08770    0.42600    1.000
    H476     H        0.34950    0.12100    0.40550    1.000
    C337     C        0.41590    0.12330    0.42380    1.000
    C338     C        0.43740    0.12490    0.46030    1.000
    C339     C        0.47630    0.14920    0.45640    1.000
    C340     C        0.50740    0.16060    0.48530    1.000
    H477     H        0.52140    0.18300    0.48010    1.000
    H478     H        0.48760    0.16220    0.50580    1.000
    H479     H        0.53350    0.14410    0.48890    1.000
    C341     C        0.32510    0.18830    0.29180    1.000
    H480     H        0.31550    0.18260    0.31500    1.000
    H481     H        0.29900    0.20110    0.28080    1.000
    H482     H        0.33120    0.16730    0.27910    1.000
    C342     C        0.36930    0.20900    0.29250    1.000
    C343     C        0.37670    0.23880    0.27110    1.000
    C344     C        0.41300    0.25780    0.28600    1.000
    C345     C        0.43940    0.29190    0.27490    1.000
    H483     H        0.47010    0.28630    0.26370    1.000
    H484     H        0.41860    0.30450    0.25920    1.000
    H485     H        0.44580    0.30590    0.29490    1.000
    C346     C        0.28010    0.29220    0.27580    1.000
    H486     H        0.24750    0.30040    0.27000    1.000
    H487     H        0.27800    0.27640    0.29490    1.000
    H488     H        0.30060    0.31160    0.28210    1.000
    C347     C        0.30220    0.27390    0.24520    1.000
    C348     C        0.34100    0.24790    0.24510    1.000
    C349     C        0.34790    0.23940    0.21030    1.000
    C350     C        0.37650    0.21600    0.19540    1.000
    H489     H        0.40910    0.21710    0.20520    1.000
    H490     H        0.36290    0.19320    0.19900    1.000
    H491     H        0.37830    0.22070    0.17100    1.000
    C351     C        0.34660    0.34200    0.17770    1.000
    H492     H        0.37040    0.32350    0.17710    1.000
    H493     H        0.36340    0.36400    0.17730    1.000
    H494     H        0.32720    0.34020    0.19840    1.000
    C352     C        0.31370    0.33930    0.14720    1.000
    C353     C        0.32230    0.34710    0.11380    1.000
    C354     C        0.28070    0.33650    0.09560    1.000
    C355     C        0.26890    0.34130    0.05620    1.000
    H495     H        0.23570    0.34980    0.05360    1.000
    H496     H        0.29170    0.35770    0.04640    1.000
    H497     H        0.27210    0.31930    0.04460    1.000
    C356     C        0.40110    0.31630    0.05320    1.000
    H498     H        0.41820    0.30010    0.06770    1.000
    H499     H        0.36880    0.30730    0.04770    1.000
    H500     H        0.41950    0.31970    0.03230    1.000
    C357     C        0.37450    0.39950    0.10440    1.000
    N143     N        0.41400    0.40900    0.08210    1.000
    N144     N        0.42710    0.37940    0.06230    1.000
    H501     H        0.45000    0.37840    0.04690    1.000
    C358     C        0.39570    0.35150    0.07230    1.000
    C359     C        0.36320    0.36400    0.09830    1.000
    C360     C        0.35300    0.42500    0.12770    1.000
    H502     H        0.35480    0.44770    0.11750    1.000
    H503     H        0.31900    0.41910    0.13200    1.000
    H504     H        0.37100    0.42490    0.14910    1.000
    O521     O        0.18140    0.11050    0.01860    1.000
    K12      K        0.14970    0.09880    0.01800    1.000
    O522     O        0.22800    0.12960    0.01360    1.000
    W181     W        0.82488    0.43190    0.85524    1.000
    W182     W        0.72723    0.48472    0.85717    1.000
    W183     W        0.65749    0.40455    0.82578    1.000
    W184     W        0.75496    0.35139    0.82468    1.000
    W185     W        0.68785    0.27410    0.86110    1.000
    W186     W        0.58793    0.32311    0.85011    1.000
    W187     W        0.57684    0.40059    0.90347    1.000
    W188     W        0.79523    0.31267    0.90600    1.000
    W189     W        0.86219    0.39106    0.93827    1.000
    W190     W        0.64578    0.48018    0.93208    1.000
    W191     W        0.76216    0.53117    0.93916    1.000
    W192     W        0.86711    0.48513    0.93160    1.000
    W193     W        0.86678    0.48626    0.02991    1.000
    W194     W        0.76210    0.53093    0.03726    1.000
    W195     W        0.64611    0.48320    0.02878    1.000
    W196     W        0.85988    0.38990    0.03499    1.000
    W197     W        0.78934    0.31092    0.06274    1.000
    W198     W        0.57795    0.40435    0.05938    1.000
    W199     W        0.53394    0.35359    0.98320    1.000
    W200     W        0.75047    0.26298    0.98331    1.000
    W201     W        0.64392    0.22478    0.93990    1.000
    W202     W        0.54336    0.27391    0.92978    1.000
    W203     W        0.53762    0.26962    0.02662    1.000
    W204     W        0.64644    0.22907    0.03609    1.000
    W205     W        0.68549    0.28060    0.11479    1.000
    W206     W        0.57601    0.32032    0.10633    1.000
    W207     W        0.64424    0.39762    0.14112    1.000
    W208     W        0.75533    0.36042    0.14126    1.000
    W209     W        0.82493    0.44017    0.11039    1.000
    W210     W        0.71419    0.47768    0.11169    1.000
    Co25     Co       0.45828    0.45372    0.07617    1.000
    Co26     Co       0.41130    0.23744    0.91929    1.000
    Co27     Co       0.72281    0.19569    0.80688    1.000
    Co28     Co       0.92176    0.32356    0.64097    1.000
    K13      K        0.75830    0.35607    0.98481    1.000
    P31      P        0.68490    0.35507    0.89720    1.000
    P32      P        0.75920    0.44122    0.93110    1.000
    P33      P        0.75590    0.44146    0.03640    1.000
    P34      P        0.68090    0.35558    0.06920    1.000
    P35      P        0.63620    0.30197    0.98300    1.000
    O523     O        0.70760    0.37800    0.80010    1.000
    O524     O        0.69680    0.44320    0.83070    1.000
    O525     O        0.79130    0.39820    0.83240    1.000
    O526     O        0.78630    0.47030    0.83500    1.000
    O527     O        0.85440    0.47220    0.88860    1.000
    O528     O        0.75510    0.51510    0.88770    1.000
    O529     O        0.67060    0.47940    0.88610    1.000
    O530     O        0.76060    0.44170    0.89050    1.000
    O531     O        0.85060    0.40280    0.88980    1.000
    O532     O        0.79330    0.33750    0.86400    1.000
    O533     O        0.70320    0.37440    0.86470    1.000
    O534     O        0.61320    0.41290    0.86070    1.000
    O535     O        0.62110    0.35580    0.82570    1.000
    O536     O        0.71790    0.31150    0.82810    1.000
    O537     O        0.71090    0.24080    0.83510    1.000
    O538     O        0.62770    0.28420    0.83650    1.000
    O539     O        0.56560    0.35670    0.88270    1.000
    O540     O        0.65760    0.32120    0.88490    1.000
    O541     O        0.74480    0.28360    0.88590    1.000
    O542     O        0.73000    0.34490    0.91940    1.000
    O543     O        0.64950    0.37730    0.91950    1.000
    O544     O        0.60910    0.43950    0.92800    1.000
    O545     O        0.82690    0.34750    0.93230    1.000
    O546     O        0.78470    0.40930    0.94510    1.000
    O547     O        0.70540    0.44360    0.94320    1.000
    O548     O        0.60040    0.51090    0.92310    1.000
    O549     O        0.69710    0.51370    0.94170    1.000
    O550     O        0.78660    0.47540    0.94200    1.000
    O551     O        0.87810    0.43910    0.94430    1.000
    O552     O        0.83330    0.52970    0.92890    1.000
    O553     O        0.77100    0.53480    0.98590    1.000
    O554     O        0.86790    0.49370    0.98390    1.000
    O555     O        0.85750    0.38160    0.98490    1.000
    O556     O        0.63700    0.47760    0.98040    1.000
    O557     O        0.55540    0.38500    0.94720    1.000
    O558     O        0.77790    0.29270    0.94940    1.000
    O559     O        0.65920    0.24830    0.89340    1.000
    O560     O        0.56320    0.28920    0.88750    1.000
    O561     O        0.48490    0.25830    0.91590    1.000
    O562     O        0.57560    0.22820    0.92500    1.000
    O563     O        0.70930    0.24200    0.94920    1.000
    O564     O        0.61840    0.28040    0.94980    1.000
    O565     O        0.52750    0.31870    0.94950    1.000
    O566     O        0.61290    0.33770    0.98250    1.000
    O567     O        0.69420    0.30400    0.98340    1.000
    O568     O        0.77810    0.29310    0.01800    1.000
    O569     O        0.55840    0.38470    0.01600    1.000
    O570     O        0.52010    0.42450    0.06750    1.000
    O571     O        0.64730    0.37840    0.04680    1.000
    O572     O        0.72500    0.34350    0.04840    1.000
    O573     O        0.84140    0.28500    0.07220    1.000
    O574     O        0.82360    0.34740    0.03790    1.000
    O575     O        0.60630    0.43990    0.03340    1.000
    O576     O        0.70410    0.44340    0.02120    1.000
    O577     O        0.78160    0.40850    0.02310    1.000
    O578     O        0.87400    0.43800    0.02570    1.000
    O579     O        0.78510    0.47420    0.02440    1.000
    O580     O        0.69570    0.51600    0.02080    1.000
    O581     O        0.83160    0.52910    0.04150    1.000
    O582     O        0.85030    0.47230    0.07960    1.000
    O583     O        0.74790    0.51310    0.07880    1.000
    O584     O        0.66450    0.47980    0.07740    1.000
    O585     O        0.75370    0.44180    0.07760    1.000
    O586     O        0.84660    0.40390    0.07990    1.000
    O587     O        0.78820    0.33840    0.10410    1.000
    O588     O        0.69680    0.37510    0.10200    1.000
    O589     O        0.61070    0.41600    0.10320    1.000
    O590     O        0.56370    0.35980    0.07890    1.000
    O591     O        0.65170    0.32330    0.08030    1.000
    O592     O        0.74000    0.28270    0.08310    1.000
    O593     O        0.70930    0.24190    0.01630    1.000
    O594     O        0.61940    0.28160    0.01430    1.000
    O595     O        0.52560    0.31850    0.01660    1.000
    O596     O        0.53450    0.25880    0.98290    1.000
    O597     O        0.63400    0.21680    0.98560    1.000
    O598     O        0.57510    0.22960    0.04250    1.000
    O599     O        0.55720    0.28980    0.07370    1.000
    O600     O        0.65640    0.25060    0.07800    1.000
    O601     O        0.61780    0.28750    0.13080    1.000
    O602     O        0.61080    0.35780    0.13830    1.000
    O603     O        0.71370    0.31570    0.14150    1.000
    O604     O        0.69950    0.37870    0.16800    1.000
    O605     O        0.68820    0.44010    0.13470    1.000
    O606     O        0.78660    0.40290    0.13510    1.000
    O607     O        0.77750    0.47180    0.13230    1.000
    N145     N        0.34730    0.43060    0.89300    1.000
    H505     H        0.35710    0.44950    0.88730    1.000
    N146     N        0.30990    0.41790    0.87420    1.000
    N147     N        0.34130    0.29340    0.94710    1.000
    H506     H        0.33050    0.27820    0.96150    1.000
    N148     N        0.38210    0.28710    0.92660    1.000
    N149     N        0.44410    0.18820    0.90890    1.000
    N150     N        0.48790    0.18060    0.92780    1.000
    H507     H        0.49850    0.19160    0.94560    1.000
    C361     C        0.51110    0.15150    0.91200    1.000
    C362     C        0.48170    0.14120    0.88340    1.000
    C363     C        0.44030    0.16390    0.88150    1.000
    N151     N        0.68750    0.25840    0.76610    1.000
    H508     H        0.70700    0.27030    0.77900    1.000
    N152     N        0.67830    0.22330    0.76970    1.000
    N153     N        0.93500    0.44420    0.47820    1.000
    N154     N        0.89060    0.42970    0.47320    1.000
    H509     H        0.86920    0.43730    0.45860    1.000
    N155     N        0.94000    0.35050    0.59590    1.000
    N156     N        0.97280    0.33710    0.57350    1.000
    H510     H        0.99100    0.31970    0.57920    1.000
    N157     N        0.93410    0.26260    0.69190    1.000
    H511     H        0.96240    0.25840    0.68250    1.000
    N158     N        0.90490    0.29320    0.68490    1.000
    N159     N        0.78460    0.22140    0.78440    1.000
    N160     N        0.81100    0.24260    0.80790    1.000
    H512     H        0.80540    0.24420    0.82970    1.000
    N161     N        0.74930    0.17730    0.88040    1.000
    H513     H        0.72090    0.18590    0.88570    1.000
    N162     N        0.76670    0.17630    0.84790    1.000
    C364     C        0.40660    0.41270    0.93250    1.000
    H514     H        0.41300    0.43720    0.93390    1.000
    H515     H        0.39890    0.40390    0.95510    1.000
    H516     H        0.43540    0.40100    0.92370    1.000
    C365     C        0.36920    0.40710    0.91180    1.000
    C366     C        0.34160    0.37350    0.90410    1.000
    C367     C        0.30570    0.38660    0.87960    1.000
    C368     C        0.26800    0.35830    0.86470    1.000
    H517     H        0.24100    0.35520    0.88050    1.000
    H518     H        0.25540    0.36600    0.84280    1.000
    H519     H        0.28490    0.33650    0.86170    1.000
    C369     C        0.27470    0.33270    0.96380    1.000
    H520     H        0.25770    0.31210    0.97130    1.000
    H521     H        0.28390    0.34640    0.98350    1.000
    H522     H        0.25320    0.34610    0.94910    1.000
    C370     C        0.32110    0.32240    0.94370    1.000
    C371     C        0.35100    0.34020    0.92040    1.000
    C372     C        0.38780    0.31860    0.91050    1.000
    C373     C        0.42880    0.32690    0.88510    1.000
    H523     H        0.43640    0.30650    0.87180    1.000
    H524     H        0.41820    0.34520    0.86990    1.000
    H525     H        0.45770    0.33430    0.89750    1.000
    C374     C        0.55640    0.13820    0.92750    1.000
    H526     H        0.54830    0.12030    0.94390    1.000
    H527     H        0.57730    0.12880    0.90980    1.000
    H528     H        0.57330    0.15680    0.93910    1.000
    C375     C        0.39900    0.15950    0.85900    1.000
    H529     H        0.40700    0.16850    0.83660    1.000
    H530     H        0.39120    0.13520    0.85720    1.000
    H531     H        0.37100    0.17180    0.86810    1.000
    C376     C        0.47280    0.06180    0.90920    1.000
    H532     H        0.44130    0.07110    0.91600    1.000
    H533     H        0.47100    0.03680    0.90850    1.000
    H534     H        0.49760    0.06870    0.92560    1.000
    C377     C        0.50250    0.11300    0.83040    1.000
    C378     C        0.48860    0.11080    0.86570    1.000
    C379     C        0.48610    0.07500    0.87480    1.000
    N163     N        0.49840    0.05520    0.84510    1.000
    N164     N        0.50850    0.07860    0.81770    1.000
    H535     H        0.51690    0.07300    0.79700    1.000
    C380     C        0.51000    0.14440    0.80270    1.000
    H536     H        0.53400    0.16070    0.81150    1.000
    H537     H        0.52190    0.13500    0.78130    1.000
    H538     H        0.47920    0.15610    0.79900    1.000
    C381     C        0.52200    0.23950    0.71190    1.000
    H539     H        0.51820    0.26210    0.72200    1.000
    H540     H        0.49220    0.23250    0.70080    1.000
    H541     H        0.53060    0.22300    0.72960    1.000
    C382     C        0.61310    0.24570    0.69020    1.000
    C383     C        0.63330    0.24830    0.65640    1.000
    N165     N        0.59390    0.24490    0.63240    1.000
    N166     N        0.54940    0.24010    0.65130    1.000
    H542     H        0.52030    0.23740    0.64270    1.000
    C384     C        0.56130    0.24060    0.68700    1.000
    C385     C        0.68130    0.25070    0.65100    1.000
    H543     H        0.69750    0.23060    0.66040    1.000
    H544     H        0.68760    0.25200    0.62670    1.000
    H545     H        0.69390    0.27120    0.66210    1.000
    C386     C        0.67270    0.30890    0.72870    1.000
    H546     H        0.70740    0.31170    0.72420    1.000
    H547     H        0.65430    0.31400    0.70810    1.000
    H548     H        0.66290    0.32460    0.74680    1.000
    C387     C        0.66220    0.27110    0.74010    1.000
    C388     C        0.63900    0.24840    0.72350    1.000
    C389     C        0.64710    0.21480    0.74220    1.000
    C390     C        0.62780    0.17790    0.73870    1.000
    H549     H        0.64520    0.16300    0.75440    1.000
    H550     H        0.59310    0.17750    0.74390    1.000
    H551     H        0.63300    0.16990    0.71550    1.000
    C391     C        0.01030    0.43600    0.51230    1.000
    H552     H        0.01920    0.45850    0.50330    1.000
    H553     H        0.01430    0.43600    0.53690    1.000
    H554     H        0.03130    0.41860    0.50230    1.000
    C392     C        0.95840    0.42850    0.50360    1.000
    C393     C        0.92870    0.40080    0.51520    1.000
    C394     C        0.88350    0.40260    0.49340    1.000
    C395     C        0.83780    0.38180    0.49520    1.000
    H555     H        0.84320    0.35970    0.48430    1.000
    H556     H        0.82890    0.37830    0.51890    1.000
    H557     H        0.81160    0.39390    0.48350    1.000
    C396     C        0.87620    0.39490    0.59000    1.000
    H558     H        0.88610    0.40580    0.61120    1.000
    H559     H        0.86550    0.41230    0.57400    1.000
    H560     H        0.84950    0.37900    0.59450    1.000
    C397     C        0.91590    0.37670    0.57620    1.000
    C398     C        0.93740    0.37510    0.53970    1.000
    C399     C        0.97630    0.35080    0.54360    1.000
    C400     C        0.00740    0.33940    0.51470    1.000
    H561     H        0.02140    0.31700    0.51990    1.000
    H562     H        0.98760    0.33780    0.49420    1.000
    H563     H        0.03350    0.35590    0.51110    1.000
    C401     C        0.82510    0.31170    0.70820    1.000
    H564     H        0.81550    0.31740    0.68500    1.000
    H565     H        0.79900    0.29890    0.71920    1.000
    H566     H        0.83120    0.33270    0.72090    1.000
    C402     C        0.86930    0.29100    0.70750    1.000
    C403     C        0.87670    0.26120    0.72890    1.000
    C404     C        0.91300    0.24220    0.71400    1.000
    C405     C        0.93940    0.20810    0.72510    1.000
    H567     H        0.97010    0.21370    0.73630    1.000
    H568     H        0.91860    0.19550    0.74080    1.000
    H569     H        0.94580    0.19410    0.70510    1.000
    C406     C        0.78010    0.20780    0.72420    1.000
    H570     H        0.74750    0.19960    0.73000    1.000
    H571     H        0.77800    0.22360    0.70510    1.000
    H572     H        0.80060    0.18840    0.71790    1.000
    C407     C        0.80220    0.22610    0.75480    1.000
    C408     C        0.84100    0.25210    0.75490    1.000
    C409     C        0.84790    0.26060    0.78970    1.000
    C410     C        0.87650    0.28400    0.80460    1.000
    H573     H        0.90910    0.28290    0.79480    1.000
    H574     H        0.86290    0.30680    0.80100    1.000
    H575     H        0.87830    0.27930    0.82900    1.000
    C411     C        0.84660    0.15800    0.82230    1.000
    H576     H        0.87040    0.17650    0.82290    1.000
    H577     H        0.86340    0.13600    0.82270    1.000
    H578     H        0.82720    0.15980    0.80160    1.000
    C412     C        0.81370    0.16070    0.85280    1.000
    C413     C        0.82230    0.15290    0.88620    1.000
    C414     C        0.78070    0.16350    0.90440    1.000
    C415     C        0.76890    0.15870    0.94380    1.000
    H579     H        0.73570    0.15020    0.94640    1.000
    H580     H        0.79170    0.14230    0.95360    1.000
    H581     H        0.77210    0.18070    0.95540    1.000
    C416     C        0.90110    0.18370    0.94680    1.000
    H582     H        0.91820    0.19990    0.93230    1.000
    H583     H        0.86880    0.19270    0.95230    1.000
    H584     H        0.91950    0.18030    0.96770    1.000
    C417     C        0.87450    0.10050    0.89560    1.000
    N167     N        0.91400    0.09100    0.91790    1.000
    N168     N        0.92710    0.12060    0.93770    1.000
    H585     H        0.95000    0.12160    0.95310    1.000
    C418     C        0.89570    0.14850    0.92770    1.000
    C419     C        0.86320    0.13600    0.90170    1.000
    C420     C        0.85300    0.07500    0.87230    1.000
    H586     H        0.85480    0.05230    0.88250    1.000
    H587     H        0.81900    0.08090    0.86800    1.000
    H588     H        0.87100    0.07510    0.85090    1.000
    O608     O        0.68140    0.38950    0.98140    1.000
    K14      K        0.64970    0.40120    0.98200    1.000
    O609     O        0.72800    0.37040    0.98640    1.000
    W211     W        0.67512    0.06810    0.35524    1.000
    W212     W        0.77277    0.01528    0.35717    1.000
    W213     W        0.84251    0.09545    0.32578    1.000
    W214     W        0.74504    0.14861    0.32468    1.000
    W215     W        0.81215    0.22590    0.36110    1.000
    W216     W        0.91207    0.17689    0.35011    1.000
    W217     W        0.92316    0.09941    0.40347    1.000
    W218     W        0.70477    0.18733    0.40600    1.000
    W219     W        0.63781    0.10894    0.43827    1.000
    W220     W        0.85422    0.01982    0.43208    1.000
    W221     W        0.73784    0.96883    0.43916    1.000
    W222     W        0.63289    0.01487    0.43160    1.000
    W223     W        0.63322    0.01374    0.52991    1.000
    W224     W        0.73790    0.96907    0.53726    1.000
    W225     W        0.85389    0.01680    0.52878    1.000
    W226     W        0.64012    0.11010    0.53499    1.000
    W227     W        0.71066    0.18908    0.56274    1.000
    W228     W        0.92205    0.09565    0.55938    1.000
    W229     W        0.96606    0.14641    0.48320    1.000
    W230     W        0.74953    0.23702    0.48331    1.000
    W231     W        0.85608    0.27522    0.43990    1.000
    W232     W        0.95664    0.22609    0.42978    1.000
    W233     W        0.96238    0.23038    0.52662    1.000
    W234     W        0.85356    0.27093    0.53609    1.000
    W235     W        0.81451    0.21940    0.61479    1.000
    W236     W        0.92399    0.17968    0.60633    1.000
    W237     W        0.85576    0.10238    0.64112    1.000
    W238     W        0.74467    0.13958    0.64126    1.000
    W239     W        0.67507    0.05983    0.61039    1.000
    W240     W        0.78581    0.02232    0.61169    1.000
    Co29     Co       0.04172    0.04628    0.57617    1.000
    Co30     Co       0.08870    0.26256    0.41929    1.000
    Co31     Co       0.77719    0.30431    0.30688    1.000
    Co32     Co       0.57824    0.17644    0.14097    1.000
    K15      K        0.74170    0.14393    0.48481    1.000
    P36      P        0.81510    0.14493    0.39720    1.000
    P37      P        0.74080    0.05878    0.43110    1.000
    P38      P        0.74410    0.05854    0.53640    1.000
    P39      P        0.81910    0.14442    0.56920    1.000
    P40      P        0.86380    0.19803    0.48300    1.000
    O610     O        0.79240    0.12200    0.30010    1.000
    O611     O        0.80320    0.05680    0.33070    1.000
    O612     O        0.70870    0.10180    0.33240    1.000
    O613     O        0.71370    0.02970    0.33500    1.000
    O614     O        0.64560    0.02780    0.38860    1.000
    O615     O        0.74490    0.98490    0.38770    1.000
    O616     O        0.82940    0.02060    0.38610    1.000
    O617     O        0.73940    0.05830    0.39050    1.000
    O618     O        0.64940    0.09720    0.38980    1.000
    O619     O        0.70670    0.16250    0.36400    1.000
    O620     O        0.79680    0.12560    0.36470    1.000
    O621     O        0.88680    0.08710    0.36070    1.000
    O622     O        0.87890    0.14420    0.32570    1.000
    O623     O        0.78210    0.18850    0.32810    1.000
    O624     O        0.78910    0.25920    0.33510    1.000
    O625     O        0.87230    0.21580    0.33650    1.000
    O626     O        0.93440    0.14330    0.38270    1.000
    O627     O        0.84240    0.17880    0.38490    1.000
    O628     O        0.75520    0.21640    0.38590    1.000
    O629     O        0.77000    0.15510    0.41940    1.000
    O630     O        0.85050    0.12270    0.41950    1.000
    O631     O        0.89090    0.06050    0.42800    1.000
    O632     O        0.67310    0.15250    0.43230    1.000
    O633     O        0.71530    0.09070    0.44510    1.000
    O634     O        0.79460    0.05640    0.44320    1.000
    O635     O        0.89960    0.98910    0.42310    1.000
    O636     O        0.80290    0.98630    0.44170    1.000
    O637     O        0.71340    0.02460    0.44200    1.000
    O638     O        0.62190    0.06090    0.44430    1.000
    O639     O        0.66670    0.97030    0.42890    1.000
    O640     O        0.72900    0.96520    0.48590    1.000
    O641     O        0.63210    0.00630    0.48390    1.000
    O642     O        0.64250    0.11840    0.48490    1.000
    O643     O        0.86300    0.02240    0.48040    1.000
    O644     O        0.94460    0.11500    0.44720    1.000
    O645     O        0.72210    0.20730    0.44940    1.000
    O646     O        0.84080    0.25170    0.39340    1.000
    O647     O        0.93680    0.21080    0.38750    1.000
    O648     O        0.01510    0.24170    0.41590    1.000
    O649     O        0.92440    0.27180    0.42500    1.000
    O650     O        0.79070    0.25800    0.44920    1.000
    O651     O        0.88160    0.21960    0.44980    1.000
    O652     O        0.97250    0.18130    0.44950    1.000
    O653     O        0.88710    0.16230    0.48250    1.000
    O654     O        0.80580    0.19600    0.48340    1.000
    O655     O        0.72190    0.20690    0.51800    1.000
    O656     O        0.94160    0.11530    0.51600    1.000
    O657     O        0.97990    0.07550    0.56750    1.000
    O658     O        0.85270    0.12160    0.54680    1.000
    O659     O        0.77500    0.15650    0.54840    1.000
    O660     O        0.65860    0.21500    0.57220    1.000
    O661     O        0.67640    0.15260    0.53790    1.000
    O662     O        0.89370    0.06010    0.53340    1.000
    O663     O        0.79590    0.05660    0.52120    1.000
    O664     O        0.71840    0.09150    0.52310    1.000
    O665     O        0.62600    0.06200    0.52570    1.000
    O666     O        0.71490    0.02580    0.52440    1.000
    O667     O        0.80430    0.98400    0.52080    1.000
    O668     O        0.66840    0.97090    0.54150    1.000
    O669     O        0.64970    0.02770    0.57960    1.000
    O670     O        0.75210    0.98690    0.57880    1.000
    O671     O        0.83550    0.02020    0.57740    1.000
    O672     O        0.74630    0.05820    0.57760    1.000
    O673     O        0.65340    0.09610    0.57990    1.000
    O674     O        0.71180    0.16160    0.60410    1.000
    O675     O        0.80320    0.12490    0.60200    1.000
    O676     O        0.88930    0.08400    0.60320    1.000
    O677     O        0.93630    0.14020    0.57890    1.000
    O678     O        0.84830    0.17670    0.58030    1.000
    O679     O        0.76000    0.21730    0.58310    1.000
    O680     O        0.79070    0.25810    0.51630    1.000
    O681     O        0.88060    0.21840    0.51430    1.000
    O682     O        0.97440    0.18150    0.51660    1.000
    O683     O        0.96550    0.24120    0.48290    1.000
    O684     O        0.86600    0.28320    0.48560    1.000
    O685     O        0.92490    0.27040    0.54250    1.000
    O686     O        0.94280    0.21020    0.57370    1.000
    O687     O        0.84360    0.24940    0.57800    1.000
    O688     O        0.88220    0.21250    0.63080    1.000
    O689     O        0.88920    0.14220    0.63830    1.000
    O690     O        0.78630    0.18430    0.64150    1.000
    O691     O        0.80050    0.12130    0.66800    1.000
    O692     O        0.81180    0.05990    0.63470    1.000
    O693     O        0.71340    0.09710    0.63510    1.000
    O694     O        0.72250    0.02820    0.63230    1.000
    N169     N        0.15270    0.06940    0.39300    1.000
    H589     H        0.14290    0.05050    0.38730    1.000
    N170     N        0.19010    0.08210    0.37420    1.000
    N171     N        0.15870    0.20660    0.44710    1.000
    H590     H        0.16950    0.22180    0.46150    1.000
    N172     N        0.11790    0.21290    0.42660    1.000
    N173     N        0.05590    0.31180    0.40890    1.000
    N174     N        0.01210    0.31940    0.42780    1.000
    H591     H        0.00150    0.30840    0.44560    1.000
    C421     C        0.98890    0.34850    0.41200    1.000
    C422     C        0.01830    0.35880    0.38340    1.000
    C423     C        0.05970    0.33610    0.38150    1.000
    N175     N        0.81250    0.24160    0.26610    1.000
    H592     H        0.79300    0.22970    0.27900    1.000
    N176     N        0.82170    0.27670    0.26970    1.000
    N177     N        0.56500    0.05580    0.97820    1.000
    N178     N        0.60940    0.07030    0.97320    1.000
    H593     H        0.63080    0.06270    0.95860    1.000
    N179     N        0.56000    0.14950    0.09590    1.000
    N180     N        0.52720    0.16290    0.07350    1.000
    H594     H        0.50900    0.18030    0.07920    1.000
    N181     N        0.56590    0.23740    0.19190    1.000
    H595     H        0.53760    0.24160    0.18250    1.000
    N182     N        0.59510    0.20680    0.18490    1.000
    N183     N        0.71540    0.27860    0.28440    1.000
    N184     N        0.68900    0.25740    0.30790    1.000
    H596     H        0.69460    0.25580    0.32970    1.000
    N185     N        0.75070    0.32270    0.38040    1.000
    H597     H        0.77910    0.31410    0.38570    1.000
    N186     N        0.73330    0.32370    0.34790    1.000
    C424     C        0.09340    0.08730    0.43250    1.000
    H598     H        0.08700    0.06280    0.43390    1.000
    H599     H        0.10110    0.09610    0.45510    1.000
    H600     H        0.06460    0.09900    0.42370    1.000
    C425     C        0.13080    0.09290    0.41180    1.000
    C426     C        0.15840    0.12650    0.40410    1.000
    C427     C        0.19430    0.11340    0.37960    1.000
    C428     C        0.23200    0.14170    0.36470    1.000
    H601     H        0.25900    0.14480    0.38050    1.000
    H602     H        0.24460    0.13400    0.34280    1.000
    H603     H        0.21510    0.16350    0.36170    1.000
    C429     C        0.22530    0.16730    0.46380    1.000
    H604     H        0.24230    0.18790    0.47130    1.000
    H605     H        0.21610    0.15360    0.48350    1.000
    H606     H        0.24680    0.15390    0.44910    1.000
    C430     C        0.17890    0.17760    0.44370    1.000
    C431     C        0.14900    0.15980    0.42040    1.000
    C432     C        0.11220    0.18140    0.41050    1.000
    C433     C        0.07120    0.17310    0.38510    1.000
    H607     H        0.06360    0.19350    0.37180    1.000
    H608     H        0.08180    0.15480    0.36990    1.000
    H609     H        0.04230    0.16570    0.39750    1.000
    C434     C        0.94360    0.36180    0.42750    1.000
    H610     H        0.95170    0.37970    0.44390    1.000
    H611     H        0.92270    0.37120    0.40980    1.000
    H612     H        0.92670    0.34320    0.43910    1.000
    C435     C        0.10100    0.34050    0.35900    1.000
    H613     H        0.09300    0.33150    0.33660    1.000
    H614     H        0.10880    0.36480    0.35720    1.000
    H615     H        0.12900    0.32820    0.36810    1.000
    C436     C        0.02720    0.43820    0.40920    1.000
    H616     H        0.05870    0.42890    0.41600    1.000
    H617     H        0.02900    0.46320    0.40850    1.000
    H618     H        0.00240    0.43130    0.42560    1.000
    C437     C        0.99750    0.38700    0.33040    1.000
    C438     C        0.01140    0.38920    0.36570    1.000
    C439     C        0.01390    0.42500    0.37480    1.000
    N187     N        0.00160    0.44480    0.34510    1.000
    N188     N        0.99150    0.42140    0.31770    1.000
    H619     H        0.98310    0.42700    0.29700    1.000
    C440     C        0.99000    0.35560    0.30270    1.000
    H620     H        0.96600    0.33930    0.31150    1.000
    H621     H        0.97810    0.36500    0.28130    1.000
    H622     H        0.02080    0.34390    0.29900    1.000
    C441     C        0.97800    0.26050    0.21190    1.000
    H623     H        0.98180    0.23790    0.22200    1.000
    H624     H        0.00780    0.26750    0.20080    1.000
    H625     H        0.96940    0.27700    0.22960    1.000
    C442     C        0.88690    0.25430    0.19020    1.000
    C443     C        0.86670    0.25170    0.15640    1.000
    N189     N        0.90610    0.25510    0.13240    1.000
    N190     N        0.95060    0.25990    0.15130    1.000
    H626     H        0.97970    0.26260    0.14270    1.000
    C444     C        0.93870    0.25940    0.18700    1.000
    C445     C        0.81870    0.24930    0.15100    1.000
    H627     H        0.80250    0.26940    0.16040    1.000
    H628     H        0.81240    0.24800    0.12670    1.000
    H629     H        0.80610    0.22880    0.16210    1.000
    C446     C        0.82730    0.19110    0.22870    1.000
    H630     H        0.79260    0.18830    0.22420    1.000
    H631     H        0.84570    0.18600    0.20810    1.000
    H632     H        0.83710    0.17540    0.24680    1.000
    C447     C        0.83780    0.22890    0.24010    1.000
    C448     C        0.86100    0.25160    0.22350    1.000
    C449     C        0.85290    0.28520    0.24220    1.000
    C450     C        0.87220    0.32210    0.23870    1.000
    H633     H        0.85480    0.33700    0.25440    1.000
    H634     H        0.90690    0.32250    0.24390    1.000
    H635     H        0.86700    0.33010    0.21550    1.000
    C451     C        0.48970    0.06400    0.01230    1.000
    H636     H        0.48080    0.04150    0.00330    1.000
    H637     H        0.48570    0.06400    0.03690    1.000
    H638     H        0.46870    0.08140    0.00230    1.000
    C452     C        0.54160    0.07150    0.00360    1.000
    C453     C        0.57130    0.09920    0.01520    1.000
    C454     C        0.61650    0.09740    0.99340    1.000
    C455     C        0.66220    0.11820    0.99520    1.000
    H639     H        0.65680    0.14030    0.98430    1.000
    H640     H        0.67110    0.12170    0.01890    1.000
    H641     H        0.68840    0.10610    0.98350    1.000
    C456     C        0.62380    0.10510    0.09000    1.000
    H642     H        0.61390    0.09420    0.11120    1.000
    H643     H        0.63450    0.08770    0.07400    1.000
    H644     H        0.65050    0.12100    0.09450    1.000
    C457     C        0.58410    0.12330    0.07620    1.000
    C458     C        0.56260    0.12490    0.03970    1.000
    C459     C        0.52370    0.14920    0.04360    1.000
    C460     C        0.49260    0.16060    0.01470    1.000
    H645     H        0.47860    0.18300    0.01990    1.000
    H646     H        0.51240    0.16220    0.99420    1.000
    H647     H        0.46650    0.14410    0.01110    1.000
    C461     C        0.67490    0.18830    0.20820    1.000
    H648     H        0.68450    0.18260    0.18500    1.000
    H649     H        0.70100    0.20110    0.21920    1.000
    H650     H        0.66880    0.16730    0.22090    1.000
    C462     C        0.63070    0.20900    0.20750    1.000
    C463     C        0.62330    0.23880    0.22890    1.000
    C464     C        0.58700    0.25780    0.21400    1.000
    C465     C        0.56060    0.29190    0.22510    1.000
    H651     H        0.52990    0.28630    0.23630    1.000
    H652     H        0.58140    0.30450    0.24080    1.000
    H653     H        0.55420    0.30590    0.20510    1.000
    C466     C        0.71990    0.29220    0.22420    1.000
    H654     H        0.75250    0.30040    0.23000    1.000
    H655     H        0.72200    0.27640    0.20510    1.000
    H656     H        0.69940    0.31160    0.21790    1.000
    C467     C        0.69780    0.27390    0.25480    1.000
    C468     C        0.65900    0.24790    0.25490    1.000
    C469     C        0.65210    0.23940    0.28970    1.000
    C470     C        0.62350    0.21600    0.30460    1.000
    H657     H        0.59090    0.21710    0.29480    1.000
    H658     H        0.63710    0.19320    0.30100    1.000
    H659     H        0.62170    0.22070    0.32900    1.000
    C471     C        0.65340    0.34200    0.32230    1.000
    H660     H        0.62960    0.32350    0.32290    1.000
    H661     H        0.63660    0.36400    0.32270    1.000
    H662     H        0.67280    0.34020    0.30160    1.000
    C472     C        0.68630    0.33930    0.35280    1.000
    C473     C        0.67770    0.34710    0.38620    1.000
    C474     C        0.71930    0.33650    0.40440    1.000
    C475     C        0.73110    0.34130    0.44380    1.000
    H663     H        0.76430    0.34980    0.44640    1.000
    H664     H        0.70830    0.35770    0.45360    1.000
    H665     H        0.72790    0.31930    0.45540    1.000
    C476     C        0.59890    0.31630    0.44680    1.000
    H666     H        0.58180    0.30010    0.43230    1.000
    H667     H        0.63120    0.30730    0.45230    1.000
    H668     H        0.58050    0.31970    0.46770    1.000
    C477     C        0.62550    0.39950    0.39560    1.000
    N191     N        0.58600    0.40900    0.41790    1.000
    N192     N        0.57290    0.37940    0.43770    1.000
    H669     H        0.55000    0.37840    0.45310    1.000
    C478     C        0.60430    0.35150    0.42770    1.000
    C479     C        0.63680    0.36400    0.40170    1.000
    C480     C        0.64700    0.42500    0.37230    1.000
    H670     H        0.64520    0.44770    0.38250    1.000
    H671     H        0.68100    0.41910    0.36800    1.000
    H672     H        0.62900    0.42490    0.35090    1.000
    O695     O        0.81860    0.11050    0.48140    1.000
    K16      K        0.85030    0.09880    0.48200    1.000
    O696     O        0.77200    0.12960    0.48640    1.000
