# CIF file generated by openbabel 3.1.0, see https://openbabel.org
data_I
_chemical_name_common 'image0'
_cell_length_a 11.855
_cell_length_b 12.414
_cell_length_c 12.473
_cell_angle_alpha 90
_cell_angle_beta 99.01
_cell_angle_gamma 90
_space_group_name_H-M_alt 'P 1'
_space_group_name_Hall 'P 1'
loop_
    _symmetry_equiv_pos_as_xyz
    x,y,z
loop_
    _atom_site_label
    _atom_site_type_symbol
    _atom_site_fract_x
    _atom_site_fract_y
    _atom_site_fract_z
    _atom_site_occupancy
    C1       C        0.48510    0.33950    0.48800    1.000
    C2       C        0.38920    0.37540    0.52750    1.000
    H1       H        0.32690    0.40250    0.48080    1.000
    C3       C        0.38810    0.36990    0.63920    1.000
    C4       C        0.48200    0.33370    0.70960    1.000
    H2       H        0.47980    0.33010    0.78380    1.000
    C5       C        0.57970    0.30290    0.66920    1.000
    C6       C        0.58110    0.30270    0.55870    1.000
    H3       H        0.64510    0.27830    0.53140    1.000
    C7       C        0.48880    0.34160    0.36900    1.000
    C8       C        0.27860    0.38160    0.78310    1.000
    H4       H        0.30170    0.30720    0.80130    1.000
    C9       C        0.35620    0.45790    0.85880    1.000
    C10      C        0.15450    0.39430    0.79430    1.000
    H5       H        0.10910    0.34610    0.74510    1.000
    H6       H        0.13100    0.46720    0.77750    1.000
    H7       H        0.14450    0.37780    0.86740    1.000
    C11      C        0.69160    0.29470    0.84440    1.000
    H8       H        0.65950    0.36610    0.85430    1.000
    C12      C        0.63170    0.21240    0.90790    1.000
    C13      C        0.81970    0.29860    0.88480    1.000
    H9       H        0.85440    0.35110    0.84380    1.000
    H10      H        0.85240    0.22910    0.87570    1.000
    H11      H        0.83290    0.31790    0.96020    1.000
    C14      C        0.02290    0.54540    0.09150    1.000
    C15      C        0.96270    0.54800    0.98680    1.000
    H12      H        0.99960    0.53390    0.92780    1.000
    C16      C        0.84720    0.57200    0.97100    1.000
    C17      C        0.79150    0.59120    0.05820    1.000
    H13      H        0.71370    0.60620    0.04700    1.000
    C18      C        0.85250    0.58780    0.16350    1.000
    C19      C        0.96890    0.56520    0.18050    1.000
    H14      H        0.00990    0.56340    0.25050    1.000
    C20      C        0.14870    0.51920    0.10850    1.000
    C21      C        0.68750    0.57290    0.24970    1.000
    H15      H        0.63670    0.62050    0.20140    1.000
    C22      C        0.67250    0.45720    0.21020    1.000
    C23      C        0.66120    0.58150    0.36480    1.000
    H16      H        0.68050    0.65230    0.39260    1.000
    H17      H        0.70520    0.52900    0.40990    1.000
    H18      H        0.58130    0.56860    0.36460    1.000
    C24      C        0.68030    0.60010    0.83620    1.000
    H19      H        0.63230    0.55250    0.87260    1.000
    C25      C        0.66090    0.71560    0.86480    1.000
    C26      C        0.65080    0.58720    0.71380    1.000
    H20      H        0.65900    0.51300    0.69470    1.000
    H21      H        0.70140    0.63080    0.67900    1.000
    H22      H        0.57340    0.60980    0.69040    1.000
    O1       O        0.56460    0.28460    0.33630    1.000
    O2       O        0.41730    0.39870    0.31070    1.000
    O3       O        0.28780    0.40020    0.67290    1.000
    O4       O        0.37980    0.54710    0.82660    1.000
    O5       O        0.38980    0.42120    0.95390    1.000
    O6       O        0.67890    0.27280    0.73270    1.000
    O7       O        0.62640    0.23760    0.00340    1.000
    O8       O        0.59180    0.12710    0.86100    1.000
    O9       O        0.20030    0.49630    0.20060    1.000
    O10      O        0.20010    0.52090    0.02650    1.000
    O11      O        0.79670    0.57040    0.86390    1.000
    O12      O        0.74150    0.78270    0.87710    1.000
    O13      O        0.55940    0.74580    0.87180    1.000
    O14      O        0.80380    0.60570    0.25300    1.000
    O15      O        0.75010    0.39000    0.23300    1.000
    O16      O        0.57640    0.43130    0.15510    1.000
    O17      O        0.76360    0.16840    0.34970    1.000
    H23      H        0.77150    0.11150    0.31360    1.000
    H24      H        0.80460    0.16370    0.41190    1.000
    Tb1      Tb       0.37362    0.44540    0.13027    1.000
    Tb2      Tb       0.64169    0.22965    0.18693    1.000
    C27      C        0.51490    0.83950    0.51200    1.000
    C28      C        0.61080    0.87540    0.47250    1.000
    H25      H        0.67310    0.90250    0.51920    1.000
    C29      C        0.61190    0.86990    0.36080    1.000
    C30      C        0.51800    0.83370    0.29040    1.000
    H26      H        0.52020    0.83010    0.21620    1.000
    C31      C        0.42030    0.80290    0.33080    1.000
    C32      C        0.41890    0.80270    0.44130    1.000
    H27      H        0.35490    0.77830    0.46860    1.000
    C33      C        0.51120    0.84160    0.63100    1.000
    C34      C        0.72140    0.88160    0.21690    1.000
    H28      H        0.69830    0.80720    0.19870    1.000
    C35      C        0.64380    0.95790    0.14120    1.000
    C36      C        0.84550    0.89430    0.20570    1.000
    H29      H        0.89090    0.84610    0.25490    1.000
    H30      H        0.86900    0.96720    0.22250    1.000
    H31      H        0.85550    0.87780    0.13260    1.000
    C37      C        0.30840    0.79470    0.15560    1.000
    H32      H        0.34050    0.86610    0.14570    1.000
    C38      C        0.36830    0.71240    0.09210    1.000
    C39      C        0.18030    0.79860    0.11520    1.000
    H33      H        0.14560    0.85110    0.15620    1.000
    H34      H        0.14760    0.72910    0.12430    1.000
    H35      H        0.16710    0.81790    0.03980    1.000
    C40      C        0.97710    0.04540    0.90850    1.000
    C41      C        0.03730    0.04800    0.01320    1.000
    H36      H        0.00040    0.03390    0.07220    1.000
    C42      C        0.15280    0.07200    0.02900    1.000
    C43      C        0.20850    0.09120    0.94180    1.000
    H37      H        0.28630    0.10620    0.95300    1.000
    C44      C        0.14750    0.08780    0.83650    1.000
    C45      C        0.03110    0.06520    0.81950    1.000
    H38      H        0.99010    0.06340    0.74950    1.000
    C46      C        0.85130    0.01920    0.89150    1.000
    C47      C        0.31250    0.07290    0.75030    1.000
    H39      H        0.36330    0.12050    0.79860    1.000
    C48      C        0.32750    0.95720    0.78980    1.000
    C49      C        0.33880    0.08150    0.63520    1.000
    H40      H        0.31950    0.15230    0.60740    1.000
    H41      H        0.29480    0.02900    0.59010    1.000
    H42      H        0.41870    0.06860    0.63540    1.000
    C50      C        0.31970    0.10010    0.16380    1.000
    H43      H        0.36770    0.05250    0.12740    1.000
    C51      C        0.33910    0.21560    0.13520    1.000
    C52      C        0.34920    0.08720    0.28620    1.000
    H44      H        0.34100    0.01300    0.30530    1.000
    H45      H        0.29860    0.13080    0.32100    1.000
    H46      H        0.42660    0.10980    0.30960    1.000
    O18      O        0.43540    0.78460    0.66370    1.000
    O19      O        0.58270    0.89870    0.68930    1.000
    O20      O        0.71220    0.90020    0.32710    1.000
    O21      O        0.62020    0.04710    0.17340    1.000
    O22      O        0.61020    0.92120    0.04610    1.000
    O23      O        0.32110    0.77280    0.26730    1.000
    O24      O        0.37360    0.73760    0.99660    1.000
    O25      O        0.40820    0.62710    0.13900    1.000
    O26      O        0.79970    0.99630    0.79940    1.000
    O27      O        0.79990    0.02090    0.97350    1.000
    O28      O        0.20330    0.07040    0.13610    1.000
    O29      O        0.25850    0.28270    0.12290    1.000
    O30      O        0.44060    0.24580    0.12820    1.000
    O31      O        0.19620    0.10570    0.74700    1.000
    O32      O        0.24990    0.89000    0.76700    1.000
    O33      O        0.42360    0.93130    0.84490    1.000
    O34      O        0.23640    0.66840    0.65030    1.000
    H47      H        0.22850    0.61150    0.68640    1.000
    H48      H        0.19540    0.66370    0.58810    1.000
    Tb3      Tb       0.62638    0.94540    0.86973    1.000
    Tb4      Tb       0.35831    0.72965    0.81307    1.000
