# CIF file generated by openbabel 3.1.0, see https://openbabel.org
data_I
_chemical_name_common 'image0'
_cell_length_a 10.2233
_cell_length_b 14.6052
_cell_length_c 14.3041
_cell_angle_alpha 90
_cell_angle_beta 90.162
_cell_angle_gamma 90
_space_group_name_H-M_alt 'P 1'
_space_group_name_Hall 'P 1'
loop_
    _symmetry_equiv_pos_as_xyz
    x,y,z
loop_
    _atom_site_label
    _atom_site_type_symbol
    _atom_site_fract_x
    _atom_site_fract_y
    _atom_site_fract_z
    _atom_site_occupancy
    Al1      Al       0.35820    0.38610    0.01630    1.000
    Al2      Al       0.63380    0.23070    0.87110    1.000
    P1       P        0.33260    0.23520    0.85740    1.000
    P2       P        0.66950    0.39770    0.01300    1.000
    O1       O        0.53340    0.39120    0.05210    1.000
    O2       O        0.67800    0.34520    0.92190    1.000
    O3       O        0.46210    0.19140    0.88640    1.000
    O4       O        0.32590    0.25180    0.75380    1.000
    O5       O        0.31690    0.32860    0.90390    1.000
    O6       O        0.70860    0.49630    0.99210    1.000
    O7       O        0.22150    0.17270    0.88300    1.000
    O8       O        0.76530    0.36170    0.08380    1.000
    Al3      Al       0.85820    0.88610    0.01630    1.000
    Al4      Al       0.13380    0.73070    0.87110    1.000
    P3       P        0.83260    0.73520    0.85740    1.000
    P4       P        0.16950    0.89770    0.01300    1.000
    O9       O        0.03340    0.89120    0.05210    1.000
    O10      O        0.17800    0.84520    0.92190    1.000
    O11      O        0.96210    0.69140    0.88640    1.000
    O12      O        0.82590    0.75180    0.75380    1.000
    O13      O        0.81690    0.82860    0.90390    1.000
    O14      O        0.20860    0.99630    0.99210    1.000
    O15      O        0.72150    0.67270    0.88300    1.000
    O16      O        0.26530    0.86170    0.08380    1.000
    Al5      Al       0.64180    0.38610    0.48370    1.000
    Al6      Al       0.36620    0.23070    0.62890    1.000
    P5       P        0.66740    0.23520    0.64260    1.000
    P6       P        0.33050    0.39770    0.48700    1.000
    O17      O        0.46660    0.39120    0.44790    1.000
    O18      O        0.32200    0.34520    0.57810    1.000
    O19      O        0.53790    0.19140    0.61360    1.000
    O20      O        0.67410    0.25180    0.74620    1.000
    O21      O        0.68310    0.32860    0.59610    1.000
    O22      O        0.29140    0.49630    0.50790    1.000
    O23      O        0.77850    0.17270    0.61700    1.000
    O24      O        0.23470    0.36170    0.41620    1.000
    Al7      Al       0.14180    0.88610    0.48370    1.000
    Al8      Al       0.86620    0.73070    0.62890    1.000
    P7       P        0.16740    0.73520    0.64260    1.000
    P8       P        0.83050    0.89770    0.48700    1.000
    O25      O        0.96660    0.89120    0.44790    1.000
    O26      O        0.82200    0.84520    0.57810    1.000
    O27      O        0.03790    0.69140    0.61360    1.000
    O28      O        0.17410    0.75180    0.74620    1.000
    O29      O        0.18310    0.82860    0.59610    1.000
    O30      O        0.79140    0.99630    0.50790    1.000
    O31      O        0.27850    0.67270    0.61700    1.000
    O32      O        0.73470    0.86170    0.41620    1.000
    Al9      Al       0.64180    0.61390    0.98370    1.000
    Al10     Al       0.36620    0.76930    0.12890    1.000
    P9       P        0.66740    0.76480    0.14260    1.000
    P10      P        0.33050    0.60230    0.98700    1.000
    O33      O        0.46660    0.60880    0.94790    1.000
    O34      O        0.32200    0.65480    0.07810    1.000
    O35      O        0.53790    0.80860    0.11360    1.000
    O36      O        0.67410    0.74820    0.24620    1.000
    O37      O        0.68310    0.67140    0.09610    1.000
    O38      O        0.29140    0.50370    0.00790    1.000
    O39      O        0.77850    0.82730    0.11700    1.000
    O40      O        0.23470    0.63830    0.91620    1.000
    Al11     Al       0.14180    0.11390    0.98370    1.000
    Al12     Al       0.86620    0.26930    0.12890    1.000
    P11      P        0.16740    0.26480    0.14260    1.000
    P12      P        0.83050    0.10230    0.98700    1.000
    O41      O        0.96660    0.10880    0.94790    1.000
    O42      O        0.82200    0.15480    0.07810    1.000
    O43      O        0.03790    0.30860    0.11360    1.000
    O44      O        0.17410    0.24820    0.24620    1.000
    O45      O        0.18310    0.17140    0.09610    1.000
    O46      O        0.79140    0.00370    0.00790    1.000
    O47      O        0.27850    0.32730    0.11700    1.000
    O48      O        0.73470    0.13830    0.91620    1.000
    Al13     Al       0.35820    0.61390    0.51630    1.000
    Al14     Al       0.63380    0.76930    0.37110    1.000
    P13      P        0.33260    0.76480    0.35740    1.000
    P14      P        0.66950    0.60230    0.51300    1.000
    O49      O        0.53340    0.60880    0.55210    1.000
    O50      O        0.67800    0.65480    0.42190    1.000
    O51      O        0.46210    0.80860    0.38640    1.000
    O52      O        0.32590    0.74820    0.25380    1.000
    O53      O        0.31690    0.67140    0.40390    1.000
    O54      O        0.70860    0.50370    0.49210    1.000
    O55      O        0.22150    0.82730    0.38300    1.000
    O56      O        0.76530    0.63830    0.58380    1.000
    Al15     Al       0.85820    0.11390    0.51630    1.000
    Al16     Al       0.13380    0.26930    0.37110    1.000
    P15      P        0.83260    0.26480    0.35740    1.000
    P16      P        0.16950    0.10230    0.51300    1.000
    O57      O        0.03340    0.10880    0.55210    1.000
    O58      O        0.17800    0.15480    0.42190    1.000
    O59      O        0.96210    0.30860    0.38640    1.000
    O60      O        0.82590    0.24820    0.25380    1.000
    O61      O        0.81690    0.17140    0.40390    1.000
    O62      O        0.20860    0.00370    0.49210    1.000
    O63      O        0.72150    0.32730    0.38300    1.000
    O64      O        0.26530    0.13830    0.58380    1.000
