# CIF file generated by openbabel 3.1.0, see https://openbabel.org
data_I
_chemical_name_common 'image0'
_cell_length_a 8.8994
_cell_length_b 10.719
_cell_length_c 13.656
_cell_angle_alpha 69.08
_cell_angle_beta 78.07
_cell_angle_gamma 79.98
_space_group_name_H-M_alt 'P 1'
_space_group_name_Hall 'P 1'
loop_
    _symmetry_equiv_pos_as_xyz
    x,y,z
loop_
    _atom_site_label
    _atom_site_type_symbol
    _atom_site_fract_x
    _atom_site_fract_y
    _atom_site_fract_z
    _atom_site_occupancy
    Ni1      Ni       0.81105    0.90161    0.14884    1.000
    P1       P        0.71883    0.71816    0.04872    1.000
    P2       P        0.03281    0.81838    0.96776    1.000
    O1       O        0.77670    0.59120    0.02360    1.000
    O2       O        0.73480    0.72560    0.15400    1.000
    O3       O        0.54140    0.75490    0.03790    1.000
    H1       H        0.51100    0.71500    0.00600    1.000
    O4       O        0.09030    0.67600    0.96980    1.000
    O5       O        0.03370    0.84100    0.07310    1.000
    O6       O        0.11330    0.92120    0.87310    1.000
    O7       O        0.76640    0.97190    0.98880    1.000
    H2       H        0.81900    0.03400    0.95800    1.000
    C1       C        0.82430    0.85650    0.95280    1.000
    C2       C        0.80750    0.89590    0.83660    1.000
    H3       H        0.86320    0.97340    0.79660    1.000
    H4       H        0.85750    0.82270    0.81140    1.000
    N1       N        0.64960    0.92820    0.81230    1.000
    C3       C        0.53310    0.01210    0.84340    1.000
    H5       H        0.54110    0.05940    0.88710    1.000
    N2       N        0.40570    0.01910    0.80400    1.000
    C4       C        0.44470    0.93550    0.74540    1.000
    H6       H        0.37850    0.91900    0.70800    1.000
    C5       C        0.59180    0.88010    0.74890    1.000
    H7       H        0.64440    0.82040    0.71480    1.000
    N3       N        0.98470    0.55600    0.83780    1.000
    C6       C        0.84710    0.56460    0.70220    1.000
    H8       H        0.76730    0.53590    0.68400    1.000
    C7       C        0.94230    0.65240    0.62490    1.000
    C8       C        0.06160    0.68620    0.65720    1.000
    H9       H        0.12990    0.74330    0.60780    1.000
    C9       C        0.08010    0.63580    0.76280    1.000
    H10      H        0.16290    0.65860    0.78230    1.000
    C10      C        0.91370    0.70870    0.51280    1.000
    C11      C        0.86780    0.63270    0.46320    1.000
    H11      H        0.85130    0.54360    0.50060    1.000
    C12      C        0.84640    0.68880    0.35840    1.000
    H12      H        0.82030    0.63450    0.32590    1.000
    C13      C        0.89820    0.89370    0.35140    1.000
    H13      H        0.90490    0.98460    0.31430    1.000
    C14      C        0.92630    0.84250    0.45500    1.000
    H14      H        0.95360    0.89830    0.48570    1.000
    N4       N        0.86140    0.81750    0.30170    1.000
    C15      C        0.87130    0.52010    0.80620    1.000
    H15      H        0.80530    0.46200    0.85710    1.000
    C16      C        0.74600    0.78600    0.38390    1.000
    H16      H        0.64550    0.80780    0.36940    1.000
    C17      C        0.76700    0.72400    0.48900    1.000
    H17      H        0.68410    0.69430    0.54140    1.000
    C18      C        0.00730    0.78800    0.32400    1.000
    H18      H        0.09060    0.80080    0.26880    1.000
    C19      C        0.03300    0.73800    0.42810    1.000
    H19      H        0.13400    0.72330    0.44160    1.000
    Ni2      Ni       0.18895    0.09839    0.85116    1.000
    P3       P        0.28117    0.28184    0.95128    1.000
    P4       P        0.96719    0.18162    0.03224    1.000
    O8       O        0.22330    0.40880    0.97640    1.000
    O9       O        0.26520    0.27440    0.84600    1.000
    O10      O        0.45860    0.24510    0.96210    1.000
    H20      H        0.48900    0.28500    0.99400    1.000
    O11      O        0.90970    0.32400    0.03020    1.000
    O12      O        0.96630    0.15900    0.92690    1.000
    O13      O        0.88670    0.07880    0.12690    1.000
    O14      O        0.23360    0.02810    0.01120    1.000
    H21      H        0.18100    0.96600    0.04200    1.000
    C20      C        0.17570    0.14350    0.04720    1.000
    C21      C        0.19250    0.10410    0.16340    1.000
    H22      H        0.13680    0.02660    0.20340    1.000
    H23      H        0.14250    0.17730    0.18860    1.000
    N5       N        0.35040    0.07180    0.18770    1.000
    C22      C        0.46690    0.98790    0.15660    1.000
    H24      H        0.45890    0.94060    0.11290    1.000
    N6       N        0.59430    0.98090    0.19600    1.000
    C23      C        0.55530    0.06450    0.25460    1.000
    H25      H        0.62150    0.08100    0.29200    1.000
    C24      C        0.40820    0.11990    0.25110    1.000
    H26      H        0.35560    0.17960    0.28520    1.000
    N7       N        0.01530    0.44400    0.16220    1.000
    C25      C        0.15290    0.43540    0.29780    1.000
    H27      H        0.23270    0.46410    0.31600    1.000
    C26      C        0.05770    0.34760    0.37510    1.000
    C27      C        0.93840    0.31380    0.34280    1.000
    H28      H        0.87010    0.25670    0.39220    1.000
    C28      C        0.91990    0.36420    0.23720    1.000
    H29      H        0.83710    0.34140    0.21770    1.000
    C29      C        0.08630    0.29130    0.48720    1.000
    C30      C        0.13220    0.36730    0.53680    1.000
    H30      H        0.14870    0.45640    0.49940    1.000
    C31      C        0.15360    0.31120    0.64160    1.000
    H31      H        0.17970    0.36550    0.67410    1.000
    C32      C        0.10180    0.10630    0.64860    1.000
    H32      H        0.09510    0.01540    0.68570    1.000
    C33      C        0.07370    0.15750    0.54500    1.000
    H33      H        0.04640    0.10170    0.51430    1.000
    N8       N        0.13860    0.18250    0.69830    1.000
    C34      C        0.12870    0.47990    0.19380    1.000
    H34      H        0.19470    0.53800    0.14290    1.000
    C35      C        0.25400    0.21400    0.61610    1.000
    H35      H        0.35450    0.19220    0.63060    1.000
    C36      C        0.23300    0.27600    0.51100    1.000
    H36      H        0.31590    0.30570    0.45860    1.000
    C37      C        0.99270    0.21200    0.67600    1.000
    H37      H        0.90940    0.19920    0.73120    1.000
    C38      C        0.96700    0.26200    0.57190    1.000
    H38      H        0.86600    0.27670    0.55840    1.000
    Ni3      Ni       0.00000    0.50000    0.00000    1.000
