# CIF file generated by openbabel 3.1.0, see https://openbabel.org
data_I
_chemical_name_common 'MADWAQ_clean'
_cell_length_a 7.082
_cell_length_b 12.357
_cell_length_c 20.724
_cell_angle_alpha 90
_cell_angle_beta 90
_cell_angle_gamma 90
_space_group_name_H-M_alt 'P 1'
_space_group_name_Hall 'P 1'
loop_
    _symmetry_equiv_pos_as_xyz
    x,y,z
loop_
    _atom_site_label
    _atom_site_type_symbol
    _atom_site_fract_x
    _atom_site_fract_y
    _atom_site_fract_z
    _atom_site_occupancy
    Cu1      Cu       0.24458    0.33266    0.25000    1.000
    Cu2      Cu       0.25542    0.83266    0.75000    1.000
    Cu3      Cu       0.75542    0.66734    0.75000    1.000
    Cu4      Cu       0.74458    0.16734    0.25000    1.000
    H1       H        0.48970    0.24770    0.51180    1.000
    H2       H        0.63270    0.32150    0.60360    1.000
    H3       H        0.84770    0.56400    0.49400    1.000
    H4       H        0.71510    0.48650    0.40220    1.000
    H5       H        0.36820    0.27850    0.40600    1.000
    H6       H        0.55360    0.27570    0.36620    1.000
    H7       H        0.12180    0.53690    0.35490    1.000
    H8       H        0.09880    0.43190    0.39510    1.000
    H9       H        0.01030    0.74770    0.48820    1.000
    H10      H        0.86730    0.82150    0.39640    1.000
    H11      H        0.65230    0.06400    0.50600    1.000
    H12      H        0.78490    0.98650    0.59780    1.000
    H13      H        0.13180    0.77850    0.59400    1.000
    H14      H        0.94640    0.77570    0.63380    1.000
    H15      H        0.37820    0.03690    0.64510    1.000
    H16      H        0.40120    0.93190    0.60490    1.000
    H17      H        0.51030    0.75230    0.01180    1.000
    H18      H        0.36730    0.67850    0.10360    1.000
    H19      H        0.15230    0.43600    0.99400    1.000
    H20      H        0.28490    0.51350    0.90220    1.000
    H21      H        0.63180    0.72150    0.90600    1.000
    H22      H        0.44640    0.72430    0.86620    1.000
    H23      H        0.87820    0.46310    0.85490    1.000
    H24      H        0.90120    0.56810    0.89510    1.000
    H25      H        0.98970    0.25230    0.98820    1.000
    H26      H        0.13270    0.17850    0.89640    1.000
    H27      H        0.34770    0.93600    0.00600    1.000
    H28      H        0.21510    0.01350    0.09780    1.000
    H29      H        0.86820    0.22150    0.09400    1.000
    H30      H        0.05360    0.22430    0.13380    1.000
    H31      H        0.62180    0.96310    0.14510    1.000
    H32      H        0.59880    0.06810    0.10490    1.000
    H33      H        0.51030    0.75230    0.48820    1.000
    H34      H        0.36730    0.67850    0.39640    1.000
    H35      H        0.15230    0.43600    0.50600    1.000
    H36      H        0.28490    0.51350    0.59780    1.000
    H37      H        0.63180    0.72150    0.59400    1.000
    H38      H        0.44640    0.72430    0.63380    1.000
    H39      H        0.87820    0.46310    0.64510    1.000
    H40      H        0.90120    0.56810    0.60490    1.000
    H41      H        0.98970    0.25230    0.51180    1.000
    H42      H        0.13270    0.17850    0.60360    1.000
    H43      H        0.34770    0.93600    0.49400    1.000
    H44      H        0.21510    0.01350    0.40220    1.000
    H45      H        0.86820    0.22150    0.40600    1.000
    H46      H        0.05360    0.22430    0.36620    1.000
    H47      H        0.62180    0.96310    0.35490    1.000
    H48      H        0.59880    0.06810    0.39510    1.000
    H49      H        0.48970    0.24770    0.98820    1.000
    H50      H        0.63270    0.32150    0.89640    1.000
    H51      H        0.84770    0.56400    0.00600    1.000
    H52      H        0.71510    0.48650    0.09780    1.000
    H53      H        0.36820    0.27850    0.09400    1.000
    H54      H        0.55360    0.27570    0.13380    1.000
    H55      H        0.12180    0.53690    0.14510    1.000
    H56      H        0.09880    0.43190    0.10490    1.000
    H57      H        0.01030    0.74770    0.01180    1.000
    H58      H        0.86730    0.82150    0.10360    1.000
    H59      H        0.65230    0.06400    0.99400    1.000
    H60      H        0.78490    0.98650    0.90220    1.000
    H61      H        0.13180    0.77850    0.90600    1.000
    H62      H        0.94640    0.77570    0.86620    1.000
    H63      H        0.37820    0.03690    0.85490    1.000
    H64      H        0.40120    0.93190    0.89510    1.000
    C1       C        0.56070    0.31300    0.50818    1.000
    C2       C        0.64480    0.35740    0.56301    1.000
    C3       C        0.74670    0.45410    0.55854    1.000
    C4       C        0.77270    0.49980    0.49810    1.000
    C5       C        0.69260    0.45470    0.44344    1.000
    C6       C        0.57880    0.36310    0.44816    1.000
    C7       C        0.47140    0.32060    0.39057    1.000
    C8       C        0.18540    0.48700    0.38230    1.000
    C9       C        0.93930    0.81300    0.49182    1.000
    C10      C        0.85520    0.85740    0.43699    1.000
    C11      C        0.75330    0.95410    0.44146    1.000
    C12      C        0.72730    0.99980    0.50190    1.000
    C13      C        0.80740    0.95470    0.55656    1.000
    C14      C        0.92120    0.86310    0.55184    1.000
    C15      C        0.02860    0.82060    0.60943    1.000
    C16      C        0.31460    0.98700    0.61770    1.000
    C17      C        0.43930    0.68700    0.00818    1.000
    C18      C        0.35520    0.64260    0.06301    1.000
    C19      C        0.25330    0.54590    0.05854    1.000
    C20      C        0.22730    0.50020    0.99810    1.000
    C21      C        0.30740    0.54530    0.94344    1.000
    C22      C        0.42120    0.63690    0.94816    1.000
    C23      C        0.52860    0.67940    0.89057    1.000
    C24      C        0.81460    0.51300    0.88230    1.000
    C25      C        0.06070    0.18700    0.99182    1.000
    C26      C        0.14480    0.14260    0.93699    1.000
    C27      C        0.24670    0.04590    0.94146    1.000
    C28      C        0.27270    0.00020    0.00190    1.000
    C29      C        0.19260    0.04530    0.05656    1.000
    C30      C        0.07880    0.13690    0.05184    1.000
    C31      C        0.97140    0.17940    0.10943    1.000
    C32      C        0.68540    0.01300    0.11770    1.000
    C33      C        0.43930    0.68700    0.49182    1.000
    C34      C        0.35520    0.64260    0.43699    1.000
    C35      C        0.25330    0.54590    0.44146    1.000
    C36      C        0.22730    0.50020    0.50190    1.000
    C37      C        0.30740    0.54530    0.55656    1.000
    C38      C        0.42120    0.63690    0.55184    1.000
    C39      C        0.52860    0.67940    0.60943    1.000
    C40      C        0.81460    0.51300    0.61770    1.000
    C41      C        0.06070    0.18700    0.50818    1.000
    C42      C        0.14480    0.14260    0.56301    1.000
    C43      C        0.24670    0.04590    0.55854    1.000
    C44      C        0.27270    0.00020    0.49810    1.000
    C45      C        0.19260    0.04530    0.44344    1.000
    C46      C        0.07880    0.13690    0.44816    1.000
    C47      C        0.97140    0.17940    0.39057    1.000
    C48      C        0.68540    0.01300    0.38230    1.000
    C49      C        0.56070    0.31300    0.99182    1.000
    C50      C        0.64480    0.35740    0.93699    1.000
    C51      C        0.74670    0.45410    0.94146    1.000
    C52      C        0.77270    0.49980    0.00190    1.000
    C53      C        0.69260    0.45470    0.05656    1.000
    C54      C        0.57880    0.36310    0.05184    1.000
    C55      C        0.47140    0.32060    0.10943    1.000
    C56      C        0.18540    0.48700    0.11770    1.000
    C57      C        0.93930    0.81300    0.00818    1.000
    C58      C        0.85520    0.85740    0.06301    1.000
    C59      C        0.75330    0.95410    0.05854    1.000
    C60      C        0.72730    0.99980    0.99810    1.000
    C61      C        0.80740    0.95470    0.94344    1.000
    C62      C        0.92120    0.86310    0.94816    1.000
    C63      C        0.02860    0.82060    0.89057    1.000
    C64      C        0.31460    0.98700    0.88230    1.000
    S1       S        0.37724    0.42406    0.33682    1.000
    S2       S        0.12276    0.92406    0.66318    1.000
    S3       S        0.62276    0.57594    0.83682    1.000
    S4       S        0.87724    0.07594    0.16318    1.000
    S5       S        0.62276    0.57594    0.66318    1.000
    S6       S        0.87724    0.07594    0.33682    1.000
    S7       S        0.37724    0.42406    0.16318    1.000
    S8       S        0.12276    0.92406    0.83682    1.000
    Br1      Br       0.89496    0.34829    0.25000    1.000
    Br2      Br       0.60504    0.84829    0.75000    1.000
    Br3      Br       0.10504    0.65171    0.75000    1.000
    Br4      Br       0.39496    0.15171    0.25000    1.000
