# CIF file generated by openbabel 3.1.0, see https://openbabel.org
data_I
_chemical_name_common 'image0'
_cell_length_a 10.788
_cell_length_b 11.252
_cell_length_c 11.84
_cell_angle_alpha 100.854
_cell_angle_beta 110.289
_cell_angle_gamma 99.777
_space_group_name_H-M_alt 'P 1'
_space_group_name_Hall 'P 1'
loop_
    _symmetry_equiv_pos_as_xyz
    x,y,z
loop_
    _atom_site_label
    _atom_site_type_symbol
    _atom_site_fract_x
    _atom_site_fract_y
    _atom_site_fract_z
    _atom_site_occupancy
    Cu1      Cu       0.64293    0.50999    0.01128    1.000
    Cu2      Cu       0.56086    0.38500    0.21096    1.000
    C1       C        0.12480    0.07370    0.43170    1.000
    C2       C        0.18220    0.18820    0.51830    1.000
    H1       H        0.16500    0.26030    0.49550    1.000
    C3       C        0.26680    0.19590    0.64090    1.000
    C4       C        0.29420    0.08640    0.67400    1.000
    C5       C        0.23440    0.97260    0.58420    1.000
    H2       H        0.25230    0.90000    0.60570    1.000
    C6       C        0.14800    0.96400    0.46210    1.000
    C7       C        0.03880    0.16360    0.26160    1.000
    C8       C        0.15080    0.21270    0.23840    1.000
    H3       H        0.22870    0.18300    0.26270    1.000
    C9       C        0.14500    0.30710    0.17800    1.000
    C10      C        0.02910    0.35190    0.14260    1.000
    H4       H        0.02470    0.41350    0.09990    1.000
    C11      C        0.91880    0.30390    0.17130    1.000
    C12      C        0.92320    0.20790    0.23100    1.000
    H5       H        0.85000    0.17460    0.24970    1.000
    C13      C        0.31570    0.32440    0.73270    1.000
    C14      C        0.38980    0.09130    0.80320    1.000
    C15      C        0.79670    0.35790    0.14220    1.000
    C16      C        0.26610    0.36020    0.15080    1.000
    O1       O        0.39750    0.40700    0.71830    1.000
    O2       O        0.26263    0.34026    0.81155    1.000
    O3       O        0.47120    0.19050    0.87551    1.000
    O4       O        0.38440    0.98636    0.83034    1.000
    O5       O        0.72980    0.34640    0.20894    1.000
    O6       O        0.77411    0.41116    0.05582    1.000
    O7       O        0.24508    0.42200    0.07079    1.000
    O8       O        0.37760    0.33920    0.21032    1.000
    O9       O        0.03590    0.05865    0.31010    1.000
    O10      O        0.49959    0.39988    0.04148    1.000
    Cu3      Cu       0.35707    0.49001    0.98872    1.000
    Cu4      Cu       0.43914    0.61500    0.78904    1.000
    C17      C        0.87520    0.92630    0.56830    1.000
    C18      C        0.81780    0.81180    0.48170    1.000
    H6       H        0.83500    0.73970    0.50450    1.000
    C19      C        0.73320    0.80410    0.35910    1.000
    C20      C        0.70580    0.91360    0.32600    1.000
    C21      C        0.76560    0.02740    0.41580    1.000
    H7       H        0.74770    0.10000    0.39430    1.000
    C22      C        0.85200    0.03600    0.53790    1.000
    C23      C        0.96120    0.83640    0.73840    1.000
    C24      C        0.84920    0.78730    0.76160    1.000
    H8       H        0.77130    0.81700    0.73730    1.000
    C25      C        0.85500    0.69290    0.82200    1.000
    C26      C        0.97090    0.64810    0.85740    1.000
    H9       H        0.97530    0.58650    0.90010    1.000
    C27      C        0.08120    0.69610    0.82870    1.000
    C28      C        0.07680    0.79210    0.76900    1.000
    H10      H        0.15000    0.82540    0.75030    1.000
    C29      C        0.68430    0.67560    0.26730    1.000
    C30      C        0.61020    0.90870    0.19680    1.000
    C31      C        0.20330    0.64210    0.85780    1.000
    C32      C        0.73390    0.63980    0.84920    1.000
    O11      O        0.60250    0.59300    0.28170    1.000
    O12      O        0.73737    0.65974    0.18845    1.000
    O13      O        0.52880    0.80950    0.12449    1.000
    O14      O        0.61560    0.01364    0.16966    1.000
    O15      O        0.27020    0.65360    0.79106    1.000
    O16      O        0.22589    0.58884    0.94418    1.000
    O17      O        0.75492    0.57800    0.92921    1.000
    O18      O        0.62240    0.66080    0.78968    1.000
    O19      O        0.96410    0.94135    0.68990    1.000
    O20      O        0.50041    0.60012    0.95852    1.000
    Cu5      Cu       0.50000    0.00000    0.00000    1.000
