# CIF file generated by openbabel 3.1.0, see https://openbabel.org
data_I
_chemical_name_common 'ETEJIX_clean'
_cell_length_a 10.534
_cell_length_b 11.3
_cell_length_c 12.661
_cell_angle_alpha 101.901
_cell_angle_beta 108.73
_cell_angle_gamma 99.044
_space_group_name_H-M_alt 'P 1'
_space_group_name_Hall 'P 1'
loop_
    _symmetry_equiv_pos_as_xyz
    x,y,z
loop_
    _atom_site_label
    _atom_site_type_symbol
    _atom_site_fract_x
    _atom_site_fract_y
    _atom_site_fract_z
    _atom_site_occupancy
    La1      La       0.89680    0.45560    0.31768    1.000
    La2      La       0.10320    0.54440    0.68232    1.000
    H1       H        0.07390    0.87750    0.70660    1.000
    H2       H        0.73810    0.60580    0.74480    1.000
    H3       H        0.81410    0.08670    0.05730    1.000
    H4       H        0.98580    0.85650    0.33670    1.000
    H5       H        0.59970    0.43770    0.36770    1.000
    H6       H        0.92610    0.12250    0.29340    1.000
    H7       H        0.26190    0.39420    0.25520    1.000
    H8       H        0.18590    0.91330    0.94270    1.000
    H9       H        0.01420    0.14350    0.66330    1.000
    H10      H        0.40030    0.56230    0.63230    1.000
    C1       C        0.03190    0.97010    0.60630    1.000
    C2       C        0.02290    0.88270    0.50580    1.000
    C3       C        0.99150    0.91470    0.40280    1.000
    C4       C        0.04140    0.75370    0.50710    1.000
    C5       C        0.58200    0.55110    0.61770    1.000
    C6       C        0.64330    0.51440    0.53710    1.000
    C7       C        0.55930    0.46320    0.42110    1.000
    C8       C        0.79380    0.53110    0.57300    1.000
    C9       C        0.63750    0.01800    0.01250    1.000
    C10      C        0.59300    0.11060    0.07320    1.000
    C11      C        0.45410    0.09220    0.05930    1.000
    C12      C        0.69550    0.22890    0.14970    1.000
    C13      C        0.96810    0.02990    0.39370    1.000
    C14      C        0.97710    0.11730    0.49420    1.000
    C15      C        0.00850    0.08530    0.59720    1.000
    C16      C        0.95860    0.24630    0.49290    1.000
    C17      C        0.41800    0.44890    0.38230    1.000
    C18      C        0.35670    0.48560    0.46290    1.000
    C19      C        0.44070    0.53680    0.57890    1.000
    C20      C        0.20620    0.46890    0.42700    1.000
    C21      C        0.36250    0.98200    0.98750    1.000
    C22      C        0.40700    0.88940    0.92680    1.000
    C23      C        0.54590    0.90780    0.94070    1.000
    C24      C        0.30450    0.77110    0.85030    1.000
    O1       O        0.01600    0.67720    0.41250    1.000
    O2       O        0.08130    0.73120    0.60500    1.000
    O3       O        0.06240    0.94830    0.71150    1.000
    O4       O        0.84930    0.50650    0.49890    1.000
    O5       O        0.86700    0.56870    0.67970    1.000
    O6       O        0.65590    0.60120    0.73240    1.000
    O7       O        0.81440    0.25150    0.14890    1.000
    O8       O        0.65550    0.30590    0.21350    1.000
    O9       O        0.76230    0.01960    0.01550    1.000
    O10      O        0.98400    0.32280    0.58750    1.000
    O11      O        0.91870    0.26880    0.39500    1.000
    O12      O        0.93760    0.05170    0.28850    1.000
    O13      O        0.15070    0.49350    0.50110    1.000
    O14      O        0.13300    0.43130    0.32030    1.000
    O15      O        0.34410    0.39880    0.26760    1.000
    O16      O        0.18560    0.74850    0.85110    1.000
    O17      O        0.34450    0.69410    0.78650    1.000
    O18      O        0.23770    0.98040    0.98450    1.000
