# CIF file generated by openbabel 3.1.0, see https://openbabel.org
data_I
_chemical_name_common 'image0'
_cell_length_a 11.8013
_cell_length_b 5.5827
_cell_length_c 22.723
_cell_angle_alpha 90
_cell_angle_beta 100.092
_cell_angle_gamma 90
_space_group_name_H-M_alt 'P 1'
_space_group_name_Hall 'P 1'
loop_
    _symmetry_equiv_pos_as_xyz
    x,y,z
loop_
    _atom_site_label
    _atom_site_type_symbol
    _atom_site_fract_x
    _atom_site_fract_y
    _atom_site_fract_z
    _atom_site_occupancy
    Ca1      Ca       0.63783    0.24423    0.22287    1.000
    S1       S        0.40115    0.03640    0.10805    1.000
    O1       O        0.26576    0.47530    0.82829    1.000
    O2       O        0.26177    0.08410    0.80920    1.000
    O3       O        0.41854    0.78160    0.11215    1.000
    O4       O        0.49592    0.19580    0.13092    1.000
    O5       O        0.98569    0.47620    0.24494    1.000
    O6       O        0.95642    0.08150    0.25390    1.000
    C1       C        0.27611    0.26090    0.84485    1.000
    C2       C        0.30225    0.20750    0.91090    1.000
    C3       C        0.35575    0.38050    0.95024    1.000
    H1       H        0.37310    0.53280    0.93540    1.000
    C4       C        0.38409    0.33290    0.01096    1.000
    H2       H        0.42110    0.45070    0.03780    1.000
    C5       C        0.35719    0.10880    0.03165    1.000
    C6       C        0.29980    0.93670    0.99329    1.000
    H3       H        0.27940    0.78730    0.00850    1.000
    C7       C        0.27283    0.98600    0.93246    1.000
    H4       H        0.23450    0.86940    0.90570    1.000
    C8       C        0.28380    0.10890    0.14322    1.000
    C9       C        0.28144    0.32870    0.17217    1.000
    H5       H        0.34130    0.44260    0.17230    1.000
    C10      C        0.18884    0.37640    0.20083    1.000
    H6       H        0.18470    0.52600    0.22030    1.000
    C11      C        0.10213    0.20750    0.20137    1.000
    C12      C        0.00597    0.25970    0.23614    1.000
    C13      C        0.10561    0.98940    0.17190    1.000
    H7       H        0.04630    0.87460    0.17230    1.000
    C14      C        0.19604    0.94010    0.14189    1.000
    H8       H        0.19810    0.79380    0.12080    1.000
    Ca2      Ca       0.86217    0.74423    0.27713    1.000
    S2       S        0.09885    0.53640    0.39195    1.000
    O7       O        0.23424    0.97530    0.67171    1.000
    O8       O        0.23823    0.58410    0.69080    1.000
    O9       O        0.08146    0.28160    0.38785    1.000
    O10      O        0.00408    0.69580    0.36908    1.000
    O11      O        0.51431    0.97620    0.25506    1.000
    O12      O        0.54358    0.58150    0.24610    1.000
    C15      C        0.22389    0.76090    0.65515    1.000
    C16      C        0.19775    0.70750    0.58910    1.000
    C17      C        0.14425    0.88050    0.54976    1.000
    H9       H        0.12690    0.03280    0.56460    1.000
    C18      C        0.11591    0.83290    0.48904    1.000
    H10      H        0.07890    0.95070    0.46220    1.000
    C19      C        0.14281    0.60880    0.46835    1.000
    C20      C        0.20020    0.43670    0.50671    1.000
    H11      H        0.22060    0.28730    0.49150    1.000
    C21      C        0.22717    0.48600    0.56754    1.000
    H12      H        0.26550    0.36940    0.59430    1.000
    C22      C        0.21620    0.60890    0.35678    1.000
    C23      C        0.21856    0.82870    0.32783    1.000
    H13      H        0.15870    0.94260    0.32770    1.000
    C24      C        0.31116    0.87640    0.29917    1.000
    H14      H        0.31530    0.02600    0.27970    1.000
    C25      C        0.39787    0.70750    0.29863    1.000
    C26      C        0.49403    0.75970    0.26386    1.000
    C27      C        0.39439    0.48940    0.32810    1.000
    H15      H        0.45370    0.37460    0.32770    1.000
    C28      C        0.30396    0.44010    0.35811    1.000
    H16      H        0.30190    0.29380    0.37920    1.000
    Ca3      Ca       0.36217    0.75577    0.77713    1.000
    S3       S        0.59885    0.96360    0.89195    1.000
    O13      O        0.73424    0.52470    0.17171    1.000
    O14      O        0.73823    0.91590    0.19080    1.000
    O15      O        0.58146    0.21840    0.88785    1.000
    O16      O        0.50408    0.80420    0.86908    1.000
    O17      O        0.01431    0.52380    0.75506    1.000
    O18      O        0.04358    0.91850    0.74610    1.000
    C29      C        0.72389    0.73910    0.15515    1.000
    C30      C        0.69775    0.79250    0.08910    1.000
    C31      C        0.64425    0.61950    0.04976    1.000
    H17      H        0.62690    0.46720    0.06460    1.000
    C32      C        0.61591    0.66710    0.98904    1.000
    H18      H        0.57890    0.54930    0.96220    1.000
    C33      C        0.64281    0.89120    0.96835    1.000
    C34      C        0.70020    0.06330    0.00671    1.000
    H19      H        0.72060    0.21270    0.99150    1.000
    C35      C        0.72717    0.01400    0.06754    1.000
    H20      H        0.76550    0.13060    0.09430    1.000
    C36      C        0.71620    0.89110    0.85678    1.000
    C37      C        0.71856    0.67130    0.82783    1.000
    H21      H        0.65870    0.55740    0.82770    1.000
    C38      C        0.81116    0.62360    0.79917    1.000
    H22      H        0.81530    0.47400    0.77970    1.000
    C39      C        0.89787    0.79250    0.79863    1.000
    C40      C        0.99403    0.74030    0.76386    1.000
    C41      C        0.89439    0.01060    0.82810    1.000
    H23      H        0.95370    0.12540    0.82770    1.000
    C42      C        0.80396    0.05990    0.85811    1.000
    H24      H        0.80190    0.20620    0.87920    1.000
    Ca4      Ca       0.13783    0.25577    0.72287    1.000
    S4       S        0.90115    0.46360    0.60805    1.000
    O19      O        0.76576    0.02470    0.32829    1.000
    O20      O        0.76177    0.41590    0.30920    1.000
    O21      O        0.91854    0.71840    0.61215    1.000
    O22      O        0.99592    0.30420    0.63092    1.000
    O23      O        0.48569    0.02380    0.74494    1.000
    O24      O        0.45642    0.41850    0.75390    1.000
    C43      C        0.77611    0.23910    0.34485    1.000
    C44      C        0.80225    0.29250    0.41090    1.000
    C45      C        0.85575    0.11950    0.45024    1.000
    H25      H        0.87310    0.96720    0.43540    1.000
    C46      C        0.88409    0.16710    0.51096    1.000
    H26      H        0.92110    0.04930    0.53780    1.000
    C47      C        0.85719    0.39120    0.53165    1.000
    C48      C        0.79980    0.56330    0.49329    1.000
    H27      H        0.77940    0.71270    0.50850    1.000
    C49      C        0.77283    0.51400    0.43246    1.000
    H28      H        0.73450    0.63060    0.40570    1.000
    C50      C        0.78380    0.39110    0.64322    1.000
    C51      C        0.78144    0.17130    0.67217    1.000
    H29      H        0.84130    0.05740    0.67230    1.000
    C52      C        0.68884    0.12360    0.70083    1.000
    H30      H        0.68470    0.97400    0.72030    1.000
    C53      C        0.60213    0.29250    0.70137    1.000
    C54      C        0.50597    0.24030    0.73614    1.000
    C55      C        0.60561    0.51060    0.67190    1.000
    H31      H        0.54630    0.62540    0.67230    1.000
    C56      C        0.69604    0.55990    0.64189    1.000
    H32      H        0.69810    0.70620    0.62080    1.000
