# CIF file generated by openbabel 3.1.0, see https://openbabel.org
data_I
_chemical_name_common 'VEXTUO_clean'
_cell_length_a 18.8523
_cell_length_b 18.8523
_cell_length_c 18.8523
_cell_angle_alpha 60.5177
_cell_angle_beta 60.5177
_cell_angle_gamma 60.5177
_space_group_name_H-M_alt 'P 1'
_space_group_name_Hall 'P 1'
loop_
    _symmetry_equiv_pos_as_xyz
    x,y,z
loop_
    _atom_site_label
    _atom_site_type_symbol
    _atom_site_fract_x
    _atom_site_fract_y
    _atom_site_fract_z
    _atom_site_occupancy
    Ni1      Ni       0.35129    0.25126    0.14832    1.000
    Ni2      Ni       0.14855    0.35122    0.25110    1.000
    Ni3      Ni       0.25133    0.14848    0.35107    1.000
    Ni4      Ni       0.64855    0.75126    0.85107    1.000
    Ni5      Ni       0.85129    0.64848    0.75111    1.000
    Ni6      Ni       0.75133    0.85122    0.64832    1.000
    H7       H        0.74434    0.29576    0.89361    1.000
    H8       H        0.80103    0.40861    0.85470    1.000
    H9       H        0.54895    0.59780    0.85952    1.000
    H10      H        0.49175    0.48553    0.90500    1.000
    H11      H        0.48059    0.34826    0.04629    1.000
    H12      H        0.89383    0.74428    0.29560    1.000
    H13      H        0.85492    0.80097    0.40846    1.000
    H14      H        0.85975    0.54888    0.59764    1.000
    H15      H        0.90523    0.49169    0.48537    1.000
    H16      H        0.04652    0.48053    0.34810    1.000
    H17      H        0.29583    0.89377    0.74412    1.000
    H18      H        0.40868    0.85485    0.80081    1.000
    H19      H        0.59787    0.85968    0.54873    1.000
    H20      H        0.48559    0.90516    0.49153    1.000
    H21      H        0.34833    0.04645    0.48037    1.000
    H22      H        0.20859    0.75275    0.60456    1.000
    H23      H        0.09523    0.69622    0.64438    1.000
    H24      H        0.90701    0.94908    0.63752    1.000
    H25      H        0.01956    0.00593    0.59155    1.000
    H26      H        0.15490    0.01811    0.45162    1.000
    H27      H        0.75282    0.60472    0.20837    1.000
    H28      H        0.69629    0.64453    0.09500    1.000
    H29      H        0.94915    0.63768    0.90678    1.000
    H30      H        0.00600    0.59171    0.01933    1.000
    H31      H        0.01818    0.45178    0.15467    1.000
    H32      H        0.60479    0.20853    0.75260    1.000
    H33      H        0.64460    0.09516    0.69606    1.000
    H34      H        0.63774    0.90694    0.94892    1.000
    H35      H        0.59178    0.01949    0.00577    1.000
    H36      H        0.45184    0.15483    0.01795    1.000
    H37      H        0.25282    0.70853    0.10456    1.000
    H38      H        0.19629    0.59516    0.14437    1.000
    H39      H        0.44915    0.40694    0.13752    1.000
    H40      H        0.50600    0.51949    0.09155    1.000
    H41      H        0.51818    0.65483    0.95162    1.000
    H42      H        0.10478    0.25275    0.70837    1.000
    H43      H        0.14460    0.19622    0.59500    1.000
    H44      H        0.13774    0.44908    0.40678    1.000
    H45      H        0.09178    0.50593    0.51933    1.000
    H46      H        0.95184    0.51811    0.65467    1.000
    H47      H        0.70859    0.10472    0.25260    1.000
    H48      H        0.59523    0.14453    0.19606    1.000
    H49      H        0.40701    0.13768    0.44892    1.000
    H50      H        0.51956    0.09171    0.50577    1.000
    H51      H        0.65490    0.95178    0.51796    1.000
    H52      H        0.79583    0.24428    0.39361    1.000
    H53      H        0.90868    0.30097    0.35470    1.000
    H54      H        0.09787    0.04888    0.35952    1.000
    H55      H        0.98559    0.99169    0.40500    1.000
    H56      H        0.84833    0.98053    0.54629    1.000
    H57      H        0.24434    0.39377    0.79560    1.000
    H58      H        0.30103    0.35485    0.90846    1.000
    H59      H        0.04895    0.35968    0.09764    1.000
    H60      H        0.99175    0.40516    0.98537    1.000
    H61      H        0.98059    0.54645    0.84810    1.000
    H62      H        0.39383    0.79576    0.24412    1.000
    H63      H        0.35492    0.90861    0.30081    1.000
    H64      H        0.35975    0.09780    0.04873    1.000
    H65      H        0.40522    0.98553    0.99153    1.000
    H66      H        0.54651    0.84826    0.98037    1.000
    H67      H        0.66034    0.25273    0.83619    1.000
    H68      H        0.83641    0.66027    0.25258    1.000
    H69      H        0.25280    0.83634    0.66011    1.000
    H70      H        0.33641    0.75273    0.16011    1.000
    H71      H        0.16034    0.33634    0.75257    1.000
    H72      H        0.75280    0.16027    0.33619    1.000
    C73      C        0.70085    0.36148    0.88710    1.000
    C74      C        0.73347    0.42658    0.86492    1.000
    C75      C        0.59229    0.53199    0.87024    1.000
    C76      C        0.55951    0.46720    0.89438    1.000
    C77      C        0.61252    0.38029    0.90407    1.000
    C78      C        0.67918    0.51325    0.85804    1.000
    C79      C        0.57264    0.31128    0.93661    1.000
    C80      C        0.49939    0.30664    0.01261    1.000
    C81      C        0.71047    0.58470    0.83785    1.000
    C82      C        0.88733    0.70079    0.36132    1.000
    C83      C        0.86515    0.73340    0.42642    1.000
    C84      C        0.87046    0.59223    0.53183    1.000
    C85      C        0.89461    0.55945    0.46704    1.000
    C86      C        0.90429    0.61245    0.38013    1.000
    C87      C        0.85826    0.67912    0.51309    1.000
    C88      C        0.93684    0.57257    0.31112    1.000
    C89      C        0.01283    0.49933    0.30649    1.000
    C90      C        0.83808    0.71041    0.58455    1.000
    C91      C        0.36154    0.88726    0.70063    1.000
    C92      C        0.42665    0.86508    0.73324    1.000
    C93      C        0.53206    0.87040    0.59207    1.000
    C94      C        0.46726    0.89454    0.55929    1.000
    C95      C        0.38036    0.90423    0.61229    1.000
    C96      C        0.51332    0.85820    0.67896    1.000
    C97      C        0.31135    0.93677    0.57241    1.000
    C98      C        0.30671    0.01277    0.49917    1.000
    C99      C        0.58477    0.83801    0.71025    1.000
    C100     C        0.14295    0.79640    0.61085    1.000
    C101     C        0.07761    0.76388    0.63353    1.000
    C102     C        0.97271    0.90548    0.62714    1.000
    C103     C        0.03766    0.93810    0.60263    1.000
    C104     C        0.12442    0.88485    0.59314    1.000
    C105     C        0.99110    0.81847    0.64012    1.000
    C106     C        0.19348    0.92465    0.56029    1.000
    C107     C        0.19729    0.99850    0.48478    1.000
    C108     C        0.91917    0.78772    0.66084    1.000
    C109     C        0.79647    0.61100    0.14273    1.000
    C110     C        0.76395    0.63369    0.07738    1.000
    C111     C        0.90554    0.62730    0.97248    1.000
    C112     C        0.93816    0.60279    0.03743    1.000
    C113     C        0.88492    0.59330    0.12420    1.000
    C114     C        0.81853    0.64028    0.99088    1.000
    C115     C        0.92471    0.56045    0.19325    1.000
    C116     C        0.99857    0.48494    0.19707    1.000
    C117     C        0.78779    0.66100    0.91894    1.000
    C118     C        0.61107    0.14289    0.79624    1.000
    C119     C        0.63376    0.07754    0.76372    1.000
    C120     C        0.62736    0.97264    0.90532    1.000
    C121     C        0.60285    0.03759    0.93794    1.000
    C122     C        0.59337    0.12436    0.88469    1.000
    C123     C        0.64034    0.99104    0.81831    1.000
    C124     C        0.56052    0.19341    0.92449    1.000
    C125     C        0.48500    0.19722    0.99834    1.000
    C126     C        0.66107    0.91910    0.78757    1.000
    C127     C        0.29647    0.64289    0.11085    1.000
    C128     C        0.26395    0.57754    0.13353    1.000
    C129     C        0.40555    0.47264    0.12714    1.000
    C130     C        0.43816    0.53759    0.10263    1.000
    C131     C        0.38492    0.62436    0.09314    1.000
    C132     C        0.31853    0.49104    0.14012    1.000
    C133     C        0.42471    0.69341    0.06029    1.000
    C134     C        0.49856    0.69722    0.98478    1.000
    C135     C        0.28779    0.41910    0.16084    1.000
    C136     C        0.11107    0.29640    0.64273    1.000
    C137     C        0.13376    0.26388    0.57738    1.000
    C138     C        0.12736    0.40548    0.47248    1.000
    C139     C        0.10285    0.43810    0.53743    1.000
    C140     C        0.09337    0.38485    0.62420    1.000
    C141     C        0.14034    0.31847    0.49088    1.000
    C142     C        0.06051    0.42465    0.69325    1.000
    C143     C        0.98500    0.49850    0.69707    1.000
    C144     C        0.16107    0.28772    0.41894    1.000
    C145     C        0.64295    0.11100    0.29624    1.000
    C146     C        0.57761    0.13369    0.26372    1.000
    C147     C        0.47271    0.12730    0.40532    1.000
    C148     C        0.53766    0.10279    0.43794    1.000
    C149     C        0.62442    0.09330    0.38469    1.000
    C150     C        0.49110    0.14028    0.31831    1.000
    C151     C        0.69348    0.06045    0.42449    1.000
    C152     C        0.69729    0.98494    0.49834    1.000
    C153     C        0.41917    0.16100    0.28757    1.000
    C154     C        0.86154    0.20079    0.38710    1.000
    C155     C        0.92665    0.23340    0.36492    1.000
    C156     C        0.03206    0.09223    0.37024    1.000
    C157     C        0.96726    0.05945    0.39438    1.000
    C158     C        0.88036    0.11245    0.40407    1.000
    C159     C        0.01332    0.17912    0.35804    1.000
    C160     C        0.81135    0.07257    0.43661    1.000
    C161     C        0.80671    0.99933    0.51261    1.000
    C162     C        0.08477    0.21041    0.33785    1.000
    C163     C        0.20085    0.38726    0.86132    1.000
    C164     C        0.23347    0.36508    0.92642    1.000
    C165     C        0.09229    0.37040    0.03183    1.000
    C166     C        0.05951    0.39454    0.96704    1.000
    C167     C        0.11252    0.40423    0.88013    1.000
    C168     C        0.17918    0.35820    0.01309    1.000
    C169     C        0.07264    0.43677    0.81112    1.000
    C170     C        0.99939    0.51277    0.80649    1.000
    C171     C        0.21047    0.33801    0.08455    1.000
    C172     C        0.38733    0.86148    0.20063    1.000
    C173     C        0.36515    0.92658    0.23324    1.000
    C174     C        0.37046    0.03199    0.09207    1.000
    C175     C        0.39461    0.96720    0.05929    1.000
    C176     C        0.40429    0.88029    0.11229    1.000
    C177     C        0.35826    0.01325    0.17896    1.000
    C178     C        0.43684    0.81128    0.07241    1.000
    C179     C        0.51283    0.80664    0.99917    1.000
    C180     C        0.33808    0.08470    0.21025    1.000
    C181     C        0.60350    0.25255    0.89331    1.000
    C182     C        0.89354    0.60344    0.25239    1.000
    C183     C        0.25261    0.89347    0.60328    1.000
    C184     C        0.39354    0.75255    0.10328    1.000
    C185     C        0.10350    0.39347    0.75239    1.000
    C186     C        0.75261    0.10344    0.39331    1.000
    N187     N        0.45427    0.25183    0.04354    1.000
    N188     N        0.04376    0.45421    0.25167    1.000
    N189     N        0.25189    0.04369    0.45405    1.000
    N190     N        0.54376    0.75183    0.95405    1.000
    N191     N        0.95427    0.54369    0.75167    1.000
    N192     N        0.75189    0.95421    0.54354    1.000
    O193     O        0.78957    0.57916    0.79724    1.000
    O194     O        0.65498    0.64948    0.86202    1.000
    O195     O        0.79746    0.78950    0.57900    1.000
    O196     O        0.86224    0.65492    0.64932    1.000
    O197     O        0.57923    0.79739    0.78934    1.000
    O198     O        0.64954    0.86217    0.65476    1.000
    O199     O        0.92339    0.70857    0.70365    1.000
    O200     O        0.85444    0.84429    0.63609    1.000
    O201     O        0.70863    0.70381    0.92316    1.000
    O202     O        0.84436    0.63625    0.85422    1.000
    O203     O        0.70388    0.92332    0.70841    1.000
    O204     O        0.63632    0.85438    0.84413    1.000
    O205     O        0.20864    0.42332    0.20365    1.000
    O206     O        0.34436    0.35438    0.13609    1.000
    O207     O        0.20388    0.20857    0.42316    1.000
    O208     O        0.13632    0.34429    0.35422    1.000
    O209     O        0.42339    0.20381    0.20841    1.000
    O210     O        0.35444    0.13625    0.34413    1.000
    O211     O        0.07923    0.28950    0.29723    1.000
    O212     O        0.14954    0.15492    0.36202    1.000
    O213     O        0.28957    0.29739    0.07900    1.000
    O214     O        0.15498    0.36217    0.14932    1.000
    O215     O        0.29746    0.07916    0.28934    1.000
    O216     O        0.36224    0.14948    0.15476    1.000
    O217     O        0.25169    0.25162    0.25146    1.000
    O218     O        0.75168    0.75162    0.75146    1.000
    H219     H        0.77302    0.77296    0.77280    1.000
    H220     H        0.27302    0.27296    0.27280    1.000
