# CIF file generated by openbabel 3.1.0, see https://openbabel.org
data_I
_chemical_name_common 'image0'
_cell_length_a 24.361
_cell_length_b 15.388
_cell_length_c 11.609
_cell_angle_alpha 90
_cell_angle_beta 118.46
_cell_angle_gamma 90
_space_group_name_H-M_alt 'P 1'
_space_group_name_Hall 'P 1'
loop_
    _symmetry_equiv_pos_as_xyz
    x,y,z
loop_
    _atom_site_label
    _atom_site_type_symbol
    _atom_site_fract_x
    _atom_site_fract_y
    _atom_site_fract_z
    _atom_site_occupancy
    O1       O        0.00840    0.09290    0.66650    1.000
    C1       C        0.86260    0.27540    0.75400    1.000
    H1       H        0.84210    0.30870    0.78860    1.000
    O2       O        0.01690    0.19430    0.85750    1.000
    H2       H        0.03160    0.16250    0.82260    1.000
    C2       C        0.95410    0.20420    0.77610    1.000
    C3       C        0.82790    0.24140    0.62650    1.000
    N1       N        0.76350    0.26170    0.55910    1.000
    C4       C        0.92050    0.17090    0.65050    1.000
    C5       C        0.85820    0.18890    0.57790    1.000
    H3       H        0.83590    0.16550    0.49430    1.000
    C6       C        0.95120    0.11390    0.59200    1.000
    C7       C        0.92450    0.26160    0.82780    1.000
    H4       H        0.94720    0.28820    0.90890    1.000
    O3       O        0.91970    0.09120    0.47710    1.000
    O4       O        0.50840    0.59290    0.66650    1.000
    C8       C        0.36260    0.77540    0.75400    1.000
    H5       H        0.34210    0.80870    0.78860    1.000
    O5       O        0.51690    0.69430    0.85750    1.000
    H6       H        0.53160    0.66250    0.82260    1.000
    C9       C        0.45410    0.70420    0.77610    1.000
    C10      C        0.32790    0.74140    0.62650    1.000
    N2       N        0.26350    0.76170    0.55910    1.000
    C11      C        0.42050    0.67090    0.65050    1.000
    C12      C        0.35820    0.68890    0.57790    1.000
    H7       H        0.33590    0.66550    0.49430    1.000
    C13      C        0.45120    0.61390    0.59200    1.000
    C14      C        0.42450    0.76160    0.82780    1.000
    H8       H        0.44720    0.78820    0.90890    1.000
    O6       O        0.41970    0.59120    0.47710    1.000
    O7       O        0.99160    0.09290    0.33350    1.000
    C15      C        0.13740    0.27540    0.24600    1.000
    H9       H        0.15790    0.30870    0.21140    1.000
    O8       O        0.98310    0.19430    0.14250    1.000
    H10      H        0.96840    0.16250    0.17740    1.000
    C16      C        0.04590    0.20420    0.22390    1.000
    C17      C        0.17210    0.24140    0.37350    1.000
    N3       N        0.23650    0.26170    0.44090    1.000
    C18      C        0.07950    0.17090    0.34950    1.000
    C19      C        0.14180    0.18890    0.42210    1.000
    H11      H        0.16410    0.16550    0.50570    1.000
    C20      C        0.04880    0.11390    0.40800    1.000
    C21      C        0.07550    0.26160    0.17220    1.000
    H12      H        0.05280    0.28820    0.09110    1.000
    O9       O        0.08030    0.09120    0.52290    1.000
    O10      O        0.49160    0.59290    0.33350    1.000
    C22      C        0.63740    0.77540    0.24600    1.000
    H13      H        0.65790    0.80870    0.21140    1.000
    O11      O        0.48310    0.69430    0.14250    1.000
    H14      H        0.46840    0.66250    0.17740    1.000
    C23      C        0.54590    0.70420    0.22390    1.000
    C24      C        0.67210    0.74140    0.37350    1.000
    N4       N        0.73650    0.76170    0.44090    1.000
    C25      C        0.57950    0.67090    0.34950    1.000
    C26      C        0.64180    0.68890    0.42210    1.000
    H15      H        0.66410    0.66550    0.50570    1.000
    C27      C        0.54880    0.61390    0.40800    1.000
    C28      C        0.57550    0.76160    0.17220    1.000
    H16      H        0.55280    0.78820    0.09110    1.000
    O12      O        0.58030    0.59120    0.52290    1.000
    O13      O        0.99160    0.90710    0.33350    1.000
    C29      C        0.13740    0.72460    0.24600    1.000
    H17      H        0.15790    0.69130    0.21140    1.000
    O14      O        0.98310    0.80570    0.14250    1.000
    H18      H        0.96840    0.83750    0.17740    1.000
    C30      C        0.04590    0.79580    0.22390    1.000
    C31      C        0.17210    0.75860    0.37350    1.000
    N5       N        0.23650    0.73830    0.44090    1.000
    C32      C        0.07950    0.82910    0.34950    1.000
    C33      C        0.14180    0.81110    0.42210    1.000
    H19      H        0.16410    0.83450    0.50570    1.000
    C34      C        0.04880    0.88610    0.40800    1.000
    C35      C        0.07550    0.73840    0.17220    1.000
    H20      H        0.05280    0.71180    0.09110    1.000
    O15      O        0.08030    0.90880    0.52290    1.000
    O16      O        0.49160    0.40710    0.33350    1.000
    C36      C        0.63740    0.22460    0.24600    1.000
    H21      H        0.65790    0.19130    0.21140    1.000
    O17      O        0.48310    0.30570    0.14250    1.000
    H22      H        0.46840    0.33750    0.17740    1.000
    C37      C        0.54590    0.29580    0.22390    1.000
    C38      C        0.67210    0.25860    0.37350    1.000
    N6       N        0.73650    0.23830    0.44090    1.000
    C39      C        0.57950    0.32910    0.34950    1.000
    C40      C        0.64180    0.31110    0.42210    1.000
    H23      H        0.66410    0.33450    0.50570    1.000
    C41      C        0.54880    0.38610    0.40800    1.000
    C42      C        0.57550    0.23840    0.17220    1.000
    H24      H        0.55280    0.21180    0.09110    1.000
    O18      O        0.58030    0.40880    0.52290    1.000
    O19      O        0.00840    0.90710    0.66650    1.000
    C43      C        0.86260    0.72460    0.75400    1.000
    H25      H        0.84210    0.69130    0.78860    1.000
    O20      O        0.01690    0.80570    0.85750    1.000
    H26      H        0.03160    0.83750    0.82260    1.000
    C44      C        0.95410    0.79580    0.77610    1.000
    C45      C        0.82790    0.75860    0.62650    1.000
    N7       N        0.76350    0.73830    0.55910    1.000
    C46      C        0.92050    0.82910    0.65050    1.000
    C47      C        0.85820    0.81110    0.57790    1.000
    H27      H        0.83590    0.83450    0.49430    1.000
    C48      C        0.95120    0.88610    0.59200    1.000
    C49      C        0.92450    0.73840    0.82780    1.000
    H28      H        0.94720    0.71180    0.90890    1.000
    O21      O        0.91970    0.90880    0.47710    1.000
    O22      O        0.50840    0.40710    0.66650    1.000
    C50      C        0.36260    0.22460    0.75400    1.000
    H29      H        0.34210    0.19130    0.78860    1.000
    O23      O        0.51690    0.30570    0.85750    1.000
    H30      H        0.53160    0.33750    0.82260    1.000
    C51      C        0.45410    0.29580    0.77610    1.000
    C52      C        0.32790    0.25860    0.62650    1.000
    N8       N        0.26350    0.23830    0.55910    1.000
    C53      C        0.42050    0.32910    0.65050    1.000
    C54      C        0.35820    0.31110    0.57790    1.000
    H31      H        0.33590    0.33450    0.49430    1.000
    C55      C        0.45120    0.38610    0.59200    1.000
    C56      C        0.42450    0.23840    0.82780    1.000
    H32      H        0.44720    0.21180    0.90890    1.000
    O24      O        0.41970    0.40880    0.47710    1.000
    Cd1      Cd       0.09199    0.00000    0.69655    1.000
    O25      O        0.19610    0.00000    0.72910    1.000
    N9       N        0.47560    0.00000    0.00990    1.000
    C57      C        0.29700    0.00000    0.68370    1.000
    O26      O        0.26050    0.00000    0.94720    1.000
    C58      C        0.34810    0.00000    0.65800    1.000
    H33      H        0.34220    0.00000    0.57260    1.000
    C59      C        0.41690    0.00000    0.89200    1.000
    C60      C        0.40700    0.00000    0.76370    1.000
    H34      H        0.44140    0.00000    0.74910    1.000
    C61      C        0.25200    0.00000    0.83690    1.000
    C62      C        0.36650    0.00000    0.91490    1.000
    H35      H        0.37270    0.00000    0.00040    1.000
    C63      C        0.30530    0.00000    0.80910    1.000
    O27      O        0.23800    0.00000    0.57740    1.000
    H36      H        0.21190    0.00000    0.60300    1.000
    Cd2      Cd       0.59199    0.50000    0.69655    1.000
    O28      O        0.69610    0.50000    0.72910    1.000
    N10      N        0.97560    0.50000    0.00990    1.000
    C64      C        0.79700    0.50000    0.68370    1.000
    O29      O        0.76050    0.50000    0.94720    1.000
    C65      C        0.84810    0.50000    0.65800    1.000
    H37      H        0.84220    0.50000    0.57260    1.000
    C66      C        0.91690    0.50000    0.89200    1.000
    C67      C        0.90700    0.50000    0.76370    1.000
    H38      H        0.94140    0.50000    0.74910    1.000
    C68      C        0.75200    0.50000    0.83690    1.000
    C69      C        0.86650    0.50000    0.91490    1.000
    H39      H        0.87270    0.50000    0.00040    1.000
    C70      C        0.80530    0.50000    0.80910    1.000
    O30      O        0.73800    0.50000    0.57740    1.000
    H40      H        0.71190    0.50000    0.60300    1.000
    Cd3      Cd       0.90801    0.00000    0.30345    1.000
    O31      O        0.80390    0.00000    0.27090    1.000
    N11      N        0.52440    0.00000    0.99010    1.000
    C71      C        0.70300    0.00000    0.31630    1.000
    O32      O        0.73950    0.00000    0.05280    1.000
    C72      C        0.65190    0.00000    0.34200    1.000
    H41      H        0.65780    0.00000    0.42740    1.000
    C73      C        0.58310    0.00000    0.10800    1.000
    C74      C        0.59300    0.00000    0.23630    1.000
    H42      H        0.55860    0.00000    0.25090    1.000
    C75      C        0.74800    0.00000    0.16310    1.000
    C76      C        0.63350    0.00000    0.08510    1.000
    H43      H        0.62730    0.00000    0.99960    1.000
    C77      C        0.69470    0.00000    0.19090    1.000
    O33      O        0.76200    0.00000    0.42260    1.000
    H44      H        0.78810    0.00000    0.39700    1.000
    Cd4      Cd       0.40801    0.50000    0.30345    1.000
    O34      O        0.30390    0.50000    0.27090    1.000
    N12      N        0.02440    0.50000    0.99010    1.000
    C78      C        0.20300    0.50000    0.31630    1.000
    O35      O        0.23950    0.50000    0.05280    1.000
    C79      C        0.15190    0.50000    0.34200    1.000
    H45      H        0.15780    0.50000    0.42740    1.000
    C80      C        0.08310    0.50000    0.10800    1.000
    C81      C        0.09300    0.50000    0.23630    1.000
    H46      H        0.05860    0.50000    0.25090    1.000
    C82      C        0.24800    0.50000    0.16310    1.000
    C83      C        0.13350    0.50000    0.08510    1.000
    H47      H        0.12730    0.50000    0.99960    1.000
    C84      C        0.19470    0.50000    0.19090    1.000
    O36      O        0.26200    0.50000    0.42260    1.000
    H48      H        0.28810    0.50000    0.39700    1.000
