# CIF file generated by openbabel 3.1.0, see https://openbabel.org
data_I
_chemical_name_common 'image0'
_cell_length_a 28.6626
_cell_length_b 10.6905
_cell_length_c 28.2321
_cell_angle_alpha 90
_cell_angle_beta 111.522
_cell_angle_gamma 90
_space_group_name_H-M_alt 'P 1'
_space_group_name_Hall 'P 1'
loop_
    _symmetry_equiv_pos_as_xyz
    x,y,z
loop_
    _atom_site_label
    _atom_site_type_symbol
    _atom_site_fract_x
    _atom_site_fract_y
    _atom_site_fract_z
    _atom_site_occupancy
    Zn1      Zn       0.10915    0.22393    0.48011    1.000
    O1       O        0.15929    0.21220    0.55316    1.000
    N1       N        0.27907    0.37380    0.80858    1.000
    N2       N        0.14711    0.66470    0.94628    1.000
    C1       C        0.19971    0.53960    0.89500    1.000
    C2       C        0.22714    0.48000    0.86550    1.000
    C3       C        0.30255    0.39770    0.85838    1.000
    O2       O        0.10797    0.37150    0.54225    1.000
    C4       C        0.23025    0.40370    0.78658    1.000
    C5       C        0.27821    0.44980    0.88801    1.000
    H1       H        0.29560    0.46450    0.92250    1.000
    C6       C        0.35681    0.36810    0.87985    1.000
    C7       C        0.20703    0.37710    0.73111    1.000
    O3       O        0.54234    0.34890    0.97732    1.000
    C8       C        0.20321    0.45430    0.81363    1.000
    H2       H        0.16920    0.47110    0.79740    1.000
    C9       C        0.14293    0.30190    0.57033    1.000
    C10      C        0.16487    0.32910    0.62664    1.000
    C11      C        0.44062    0.40660    0.94103    1.000
    H3       H        0.46200    0.44960    0.96930    1.000
    C12      C        0.38926    0.43310    0.92172    1.000
    H4       H        0.37670    0.49470    0.93700    1.000
    C13      C        0.45948    0.31680    0.91812    1.000
    O4       O        0.53319    0.21670    0.91720    1.000
    C14      C        0.37605    0.27630    0.85731    1.000
    H5       H        0.35480    0.23200    0.82940    1.000
    C15      C        0.20576    0.26120    0.65752    1.000
    H6       H        0.21920    0.19890    0.64340    1.000
    C16      C        0.16541    0.44360    0.70025    1.000
    H7       H        0.15090    0.50360    0.71440    1.000
    C17      C        0.14520    0.42040    0.64778    1.000
    H8       H        0.11810    0.46750    0.62710    1.000
    C18      C        0.22687    0.28490    0.70924    1.000
    H9       H        0.25450    0.23880    0.72950    1.000
    C19      C        0.42688    0.25090    0.87660    1.000
    H10      H        0.43950    0.18870    0.86150    1.000
    C20      C        0.51501    0.29100    0.93820    1.000
    C21      C        0.22217    0.59650    0.93880    1.000
    H11      H        0.25700    0.59970    0.95290    1.000
    C22      C        0.19347    0.65270    0.96420    1.000
    H12      H        0.21050    0.68310    0.99690    1.000
    C23      C        0.12359    0.58920    0.90660    1.000
    H13      H        0.08890    0.58200    0.89590    1.000
    C24      C        0.14758    0.52220    0.88090    1.000
    H14      H        0.13010    0.46700    0.85500    1.000
    Zn2      Zn       0.60915    0.72393    0.48011    1.000
    O5       O        0.65929    0.71220    0.55316    1.000
    N3       N        0.77907    0.87380    0.80858    1.000
    N4       N        0.64711    0.16470    0.94628    1.000
    C25      C        0.69971    0.03960    0.89500    1.000
    C26      C        0.72714    0.98000    0.86550    1.000
    C27      C        0.80255    0.89770    0.85838    1.000
    O6       O        0.60797    0.87150    0.54225    1.000
    C28      C        0.73025    0.90370    0.78658    1.000
    C29      C        0.77821    0.94980    0.88801    1.000
    H15      H        0.79560    0.96450    0.92250    1.000
    C30      C        0.85681    0.86810    0.87985    1.000
    C31      C        0.70703    0.87710    0.73111    1.000
    O7       O        0.04234    0.84890    0.97732    1.000
    C32      C        0.70321    0.95430    0.81363    1.000
    H16      H        0.66920    0.97110    0.79740    1.000
    C33      C        0.64293    0.80190    0.57033    1.000
    C34      C        0.66487    0.82910    0.62664    1.000
    C35      C        0.94062    0.90660    0.94103    1.000
    H17      H        0.96200    0.94960    0.96930    1.000
    C36      C        0.88926    0.93310    0.92172    1.000
    H18      H        0.87670    0.99470    0.93700    1.000
    C37      C        0.95948    0.81680    0.91812    1.000
    O8       O        0.03319    0.71670    0.91720    1.000
    C38      C        0.87605    0.77630    0.85731    1.000
    H19      H        0.85480    0.73200    0.82940    1.000
    C39      C        0.70576    0.76120    0.65752    1.000
    H20      H        0.71920    0.69890    0.64340    1.000
    C40      C        0.66541    0.94360    0.70025    1.000
    H21      H        0.65090    0.00360    0.71440    1.000
    C41      C        0.64520    0.92040    0.64778    1.000
    H22      H        0.61810    0.96750    0.62710    1.000
    C42      C        0.72687    0.78490    0.70924    1.000
    H23      H        0.75450    0.73880    0.72950    1.000
    C43      C        0.92688    0.75090    0.87660    1.000
    H24      H        0.93950    0.68870    0.86150    1.000
    C44      C        0.01501    0.79100    0.93820    1.000
    C45      C        0.72217    0.09650    0.93880    1.000
    H25      H        0.75700    0.09970    0.95290    1.000
    C46      C        0.69347    0.15270    0.96420    1.000
    H26      H        0.71050    0.18310    0.99690    1.000
    C47      C        0.62359    0.08920    0.90660    1.000
    H27      H        0.58890    0.08200    0.89590    1.000
    C48      C        0.64758    0.02220    0.88090    1.000
    H28      H        0.63010    0.96700    0.85500    1.000
    Zn3      Zn       0.10915    0.77607    0.98011    1.000
    O9       O        0.15929    0.78780    0.05316    1.000
    N5       N        0.27907    0.62620    0.30858    1.000
    N6       N        0.14711    0.33530    0.44628    1.000
    C49      C        0.19971    0.46040    0.39500    1.000
    C50      C        0.22714    0.52000    0.36550    1.000
    C51      C        0.30255    0.60230    0.35838    1.000
    O10      O        0.10797    0.62850    0.04225    1.000
    C52      C        0.23025    0.59630    0.28658    1.000
    C53      C        0.27821    0.55020    0.38801    1.000
    H29      H        0.29560    0.53550    0.42250    1.000
    C54      C        0.35681    0.63190    0.37985    1.000
    C55      C        0.20703    0.62290    0.23111    1.000
    O11      O        0.54234    0.65110    0.47732    1.000
    C56      C        0.20321    0.54570    0.31363    1.000
    H30      H        0.16920    0.52890    0.29740    1.000
    C57      C        0.14293    0.69810    0.07033    1.000
    C58      C        0.16487    0.67090    0.12664    1.000
    C59      C        0.44062    0.59340    0.44103    1.000
    H31      H        0.46200    0.55040    0.46930    1.000
    C60      C        0.38926    0.56690    0.42172    1.000
    H32      H        0.37670    0.50530    0.43700    1.000
    C61      C        0.45948    0.68320    0.41812    1.000
    O12      O        0.53319    0.78330    0.41720    1.000
    C62      C        0.37605    0.72370    0.35731    1.000
    H33      H        0.35480    0.76800    0.32940    1.000
    C63      C        0.20576    0.73880    0.15752    1.000
    H34      H        0.21920    0.80110    0.14340    1.000
    C64      C        0.16541    0.55640    0.20025    1.000
    H35      H        0.15090    0.49640    0.21440    1.000
    C65      C        0.14520    0.57960    0.14778    1.000
    H36      H        0.11810    0.53250    0.12710    1.000
    C66      C        0.22687    0.71510    0.20924    1.000
    H37      H        0.25450    0.76120    0.22950    1.000
    C67      C        0.42688    0.74910    0.37660    1.000
    H38      H        0.43950    0.81130    0.36150    1.000
    C68      C        0.51501    0.70900    0.43820    1.000
    C69      C        0.22217    0.40350    0.43880    1.000
    H39      H        0.25700    0.40030    0.45290    1.000
    C70      C        0.19347    0.34730    0.46420    1.000
    H40      H        0.21050    0.31690    0.49690    1.000
    C71      C        0.12359    0.41080    0.40660    1.000
    H41      H        0.08890    0.41800    0.39590    1.000
    C72      C        0.14758    0.47780    0.38090    1.000
    H42      H        0.13010    0.53300    0.35500    1.000
    Zn4      Zn       0.60915    0.27607    0.98011    1.000
    O13      O        0.65929    0.28780    0.05316    1.000
    N7       N        0.77907    0.12620    0.30858    1.000
    N8       N        0.64711    0.83530    0.44628    1.000
    C73      C        0.69971    0.96040    0.39500    1.000
    C74      C        0.72714    0.02000    0.36550    1.000
    C75      C        0.80255    0.10230    0.35838    1.000
    O14      O        0.60797    0.12850    0.04225    1.000
    C76      C        0.73025    0.09630    0.28658    1.000
    C77      C        0.77821    0.05020    0.38801    1.000
    H43      H        0.79560    0.03550    0.42250    1.000
    C78      C        0.85681    0.13190    0.37985    1.000
    C79      C        0.70703    0.12290    0.23111    1.000
    O15      O        0.04234    0.15110    0.47732    1.000
    C80      C        0.70321    0.04570    0.31363    1.000
    H44      H        0.66920    0.02890    0.29740    1.000
    C81      C        0.64293    0.19810    0.07033    1.000
    C82      C        0.66487    0.17090    0.12664    1.000
    C83      C        0.94062    0.09340    0.44103    1.000
    H45      H        0.96200    0.05040    0.46930    1.000
    C84      C        0.88926    0.06690    0.42172    1.000
    H46      H        0.87670    0.00530    0.43700    1.000
    C85      C        0.95948    0.18320    0.41812    1.000
    O16      O        0.03319    0.28330    0.41720    1.000
    C86      C        0.87605    0.22370    0.35731    1.000
    H47      H        0.85480    0.26800    0.32940    1.000
    C87      C        0.70576    0.23880    0.15752    1.000
    H48      H        0.71920    0.30110    0.14340    1.000
    C88      C        0.66541    0.05640    0.20025    1.000
    H49      H        0.65090    0.99640    0.21440    1.000
    C89      C        0.64520    0.07960    0.14778    1.000
    H50      H        0.61810    0.03250    0.12710    1.000
    C90      C        0.72687    0.21510    0.20924    1.000
    H51      H        0.75450    0.26120    0.22950    1.000
    C91      C        0.92688    0.24910    0.37660    1.000
    H52      H        0.93950    0.31130    0.36150    1.000
    C92      C        0.01501    0.20900    0.43820    1.000
    C93      C        0.72217    0.90350    0.43880    1.000
    H53      H        0.75700    0.90030    0.45290    1.000
    C94      C        0.69347    0.84730    0.46420    1.000
    H54      H        0.71050    0.81690    0.49690    1.000
    C95      C        0.62359    0.91080    0.40660    1.000
    H55      H        0.58890    0.91800    0.39590    1.000
    C96      C        0.64758    0.97780    0.38090    1.000
    H56      H        0.63010    0.03300    0.35500    1.000
    Zn5      Zn       0.89085    0.22393    0.01989    1.000
    O17      O        0.84071    0.21220    0.94684    1.000
    N9       N        0.72093    0.37380    0.69142    1.000
    N10      N        0.85289    0.66470    0.55372    1.000
    C97      C        0.80029    0.53960    0.60500    1.000
    C98      C        0.77286    0.48000    0.63450    1.000
    C99      C        0.69745    0.39770    0.64162    1.000
    O18      O        0.89203    0.37150    0.95775    1.000
    C100     C        0.76975    0.40370    0.71342    1.000
    C101     C        0.72179    0.44980    0.61199    1.000
    H57      H        0.70440    0.46450    0.57750    1.000
    C102     C        0.64319    0.36810    0.62015    1.000
    C103     C        0.79297    0.37710    0.76889    1.000
    O19      O        0.45766    0.34890    0.52268    1.000
    C104     C        0.79679    0.45430    0.68637    1.000
    H58      H        0.83080    0.47110    0.70260    1.000
    C105     C        0.85707    0.30190    0.92967    1.000
    C106     C        0.83513    0.32910    0.87336    1.000
    C107     C        0.55938    0.40660    0.55897    1.000
    H59      H        0.53800    0.44960    0.53070    1.000
    C108     C        0.61074    0.43310    0.57828    1.000
    H60      H        0.62330    0.49470    0.56300    1.000
    C109     C        0.54052    0.31680    0.58188    1.000
    O20      O        0.46681    0.21670    0.58280    1.000
    C110     C        0.62395    0.27630    0.64269    1.000
    H61      H        0.64520    0.23200    0.67060    1.000
    C111     C        0.79424    0.26120    0.84248    1.000
    H62      H        0.78080    0.19890    0.85660    1.000
    C112     C        0.83459    0.44360    0.79975    1.000
    H63      H        0.84910    0.50360    0.78560    1.000
    C113     C        0.85480    0.42040    0.85222    1.000
    H64      H        0.88190    0.46750    0.87290    1.000
    C114     C        0.77313    0.28490    0.79076    1.000
    H65      H        0.74550    0.23880    0.77050    1.000
    C115     C        0.57312    0.25090    0.62340    1.000
    H66      H        0.56050    0.18870    0.63850    1.000
    C116     C        0.48499    0.29100    0.56180    1.000
    C117     C        0.77783    0.59650    0.56120    1.000
    H67      H        0.74300    0.59970    0.54710    1.000
    C118     C        0.80653    0.65270    0.53580    1.000
    H68      H        0.78950    0.68310    0.50310    1.000
    C119     C        0.87641    0.58920    0.59340    1.000
    H69      H        0.91110    0.58200    0.60410    1.000
    C120     C        0.85242    0.52220    0.61910    1.000
    H70      H        0.86990    0.46700    0.64500    1.000
    Zn6      Zn       0.39085    0.72393    0.01989    1.000
    O21      O        0.34071    0.71220    0.94684    1.000
    N11      N        0.22093    0.87380    0.69142    1.000
    N12      N        0.35289    0.16470    0.55372    1.000
    C121     C        0.30029    0.03960    0.60500    1.000
    C122     C        0.27286    0.98000    0.63450    1.000
    C123     C        0.19745    0.89770    0.64162    1.000
    O22      O        0.39203    0.87150    0.95775    1.000
    C124     C        0.26975    0.90370    0.71342    1.000
    C125     C        0.22179    0.94980    0.61199    1.000
    H71      H        0.20440    0.96450    0.57750    1.000
    C126     C        0.14319    0.86810    0.62015    1.000
    C127     C        0.29297    0.87710    0.76889    1.000
    O23      O        0.95766    0.84890    0.52268    1.000
    C128     C        0.29679    0.95430    0.68637    1.000
    H72      H        0.33080    0.97110    0.70260    1.000
    C129     C        0.35707    0.80190    0.92967    1.000
    C130     C        0.33513    0.82910    0.87336    1.000
    C131     C        0.05938    0.90660    0.55897    1.000
    H73      H        0.03800    0.94960    0.53070    1.000
    C132     C        0.11074    0.93310    0.57828    1.000
    H74      H        0.12330    0.99470    0.56300    1.000
    C133     C        0.04052    0.81680    0.58188    1.000
    O24      O        0.96681    0.71670    0.58280    1.000
    C134     C        0.12395    0.77630    0.64269    1.000
    H75      H        0.14520    0.73200    0.67060    1.000
    C135     C        0.29424    0.76120    0.84248    1.000
    H76      H        0.28080    0.69890    0.85660    1.000
    C136     C        0.33459    0.94360    0.79975    1.000
    H77      H        0.34910    0.00360    0.78560    1.000
    C137     C        0.35480    0.92040    0.85222    1.000
    H78      H        0.38190    0.96750    0.87290    1.000
    C138     C        0.27313    0.78490    0.79076    1.000
    H79      H        0.24550    0.73880    0.77050    1.000
    C139     C        0.07312    0.75090    0.62340    1.000
    H80      H        0.06050    0.68870    0.63850    1.000
    C140     C        0.98499    0.79100    0.56180    1.000
    C141     C        0.27783    0.09650    0.56120    1.000
    H81      H        0.24300    0.09970    0.54710    1.000
    C142     C        0.30653    0.15270    0.53580    1.000
    H82      H        0.28950    0.18310    0.50310    1.000
    C143     C        0.37641    0.08920    0.59340    1.000
    H83      H        0.41110    0.08200    0.60410    1.000
    C144     C        0.35242    0.02220    0.61910    1.000
    H84      H        0.36990    0.96700    0.64500    1.000
    Zn7      Zn       0.89085    0.77607    0.51989    1.000
    O25      O        0.84071    0.78780    0.44684    1.000
    N13      N        0.72093    0.62620    0.19142    1.000
    N14      N        0.85289    0.33530    0.05372    1.000
    C145     C        0.80029    0.46040    0.10500    1.000
    C146     C        0.77286    0.52000    0.13450    1.000
    C147     C        0.69745    0.60230    0.14162    1.000
    O26      O        0.89203    0.62850    0.45775    1.000
    C148     C        0.76975    0.59630    0.21342    1.000
    C149     C        0.72179    0.55020    0.11199    1.000
    H85      H        0.70440    0.53550    0.07750    1.000
    C150     C        0.64319    0.63190    0.12015    1.000
    C151     C        0.79297    0.62290    0.26889    1.000
    O27      O        0.45766    0.65110    0.02268    1.000
    C152     C        0.79679    0.54570    0.18637    1.000
    H86      H        0.83080    0.52890    0.20260    1.000
    C153     C        0.85707    0.69810    0.42967    1.000
    C154     C        0.83513    0.67090    0.37336    1.000
    C155     C        0.55938    0.59340    0.05897    1.000
    H87      H        0.53800    0.55040    0.03070    1.000
    C156     C        0.61074    0.56690    0.07828    1.000
    H88      H        0.62330    0.50530    0.06300    1.000
    C157     C        0.54052    0.68320    0.08188    1.000
    O28      O        0.46681    0.78330    0.08280    1.000
    C158     C        0.62395    0.72370    0.14269    1.000
    H89      H        0.64520    0.76800    0.17060    1.000
    C159     C        0.79424    0.73880    0.34248    1.000
    H90      H        0.78080    0.80110    0.35660    1.000
    C160     C        0.83459    0.55640    0.29975    1.000
    H91      H        0.84910    0.49640    0.28560    1.000
    C161     C        0.85480    0.57960    0.35222    1.000
    H92      H        0.88190    0.53250    0.37290    1.000
    C162     C        0.77313    0.71510    0.29076    1.000
    H93      H        0.74550    0.76120    0.27050    1.000
    C163     C        0.57312    0.74910    0.12340    1.000
    H94      H        0.56050    0.81130    0.13850    1.000
    C164     C        0.48499    0.70900    0.06180    1.000
    C165     C        0.77783    0.40350    0.06120    1.000
    H95      H        0.74300    0.40030    0.04710    1.000
    C166     C        0.80653    0.34730    0.03580    1.000
    H96      H        0.78950    0.31690    0.00310    1.000
    C167     C        0.87641    0.41080    0.09340    1.000
    H97      H        0.91110    0.41800    0.10410    1.000
    C168     C        0.85242    0.47780    0.11910    1.000
    H98      H        0.86990    0.53300    0.14500    1.000
    Zn8      Zn       0.39085    0.27607    0.51989    1.000
    O29      O        0.34071    0.28780    0.44684    1.000
    N15      N        0.22093    0.12620    0.19142    1.000
    N16      N        0.35289    0.83530    0.05372    1.000
    C169     C        0.30029    0.96040    0.10500    1.000
    C170     C        0.27286    0.02000    0.13450    1.000
    C171     C        0.19745    0.10230    0.14162    1.000
    O30      O        0.39203    0.12850    0.45775    1.000
    C172     C        0.26975    0.09630    0.21342    1.000
    C173     C        0.22179    0.05020    0.11199    1.000
    H99      H        0.20440    0.03550    0.07750    1.000
    C174     C        0.14319    0.13190    0.12015    1.000
    C175     C        0.29297    0.12290    0.26889    1.000
    O31      O        0.95766    0.15110    0.02268    1.000
    C176     C        0.29679    0.04570    0.18637    1.000
    H100     H        0.33080    0.02890    0.20260    1.000
    C177     C        0.35707    0.19810    0.42967    1.000
    C178     C        0.33513    0.17090    0.37336    1.000
    C179     C        0.05938    0.09340    0.05897    1.000
    H101     H        0.03800    0.05040    0.03070    1.000
    C180     C        0.11074    0.06690    0.07828    1.000
    H102     H        0.12330    0.00530    0.06300    1.000
    C181     C        0.04052    0.18320    0.08188    1.000
    O32      O        0.96681    0.28330    0.08280    1.000
    C182     C        0.12395    0.22370    0.14269    1.000
    H103     H        0.14520    0.26800    0.17060    1.000
    C183     C        0.29424    0.23880    0.34248    1.000
    H104     H        0.28080    0.30110    0.35660    1.000
    C184     C        0.33459    0.05640    0.29975    1.000
    H105     H        0.34910    0.99640    0.28560    1.000
    C185     C        0.35480    0.07960    0.35222    1.000
    H106     H        0.38190    0.03250    0.37290    1.000
    C186     C        0.27313    0.21510    0.29076    1.000
    H107     H        0.24550    0.26120    0.27050    1.000
    C187     C        0.07312    0.24910    0.12340    1.000
    H108     H        0.06050    0.31130    0.13850    1.000
    C188     C        0.98499    0.20900    0.06180    1.000
    C189     C        0.27783    0.90350    0.06120    1.000
    H109     H        0.24300    0.90030    0.04710    1.000
    C190     C        0.30653    0.84730    0.03580    1.000
    H110     H        0.28950    0.81690    0.00310    1.000
    C191     C        0.37641    0.91080    0.09340    1.000
    H111     H        0.41110    0.91800    0.10410    1.000
    C192     C        0.35242    0.97780    0.11910    1.000
    H112     H        0.36990    0.03300    0.14500    1.000
