# CIF file generated by openbabel 3.1.0, see https://openbabel.org
data_I
_chemical_name_common 'image0'
_cell_length_a 8.664
_cell_length_b 8.664
_cell_length_c 10.861
_cell_angle_alpha 90
_cell_angle_beta 90
_cell_angle_gamma 120
_space_group_name_H-M_alt 'P 1'
_space_group_name_Hall 'P 1'
loop_
    _symmetry_equiv_pos_as_xyz
    x,y,z
loop_
    _atom_site_label
    _atom_site_type_symbol
    _atom_site_fract_x
    _atom_site_fract_y
    _atom_site_fract_z
    _atom_site_occupancy
    O1       O        0.81124    0.97792    0.93463    1.000
    O2       O        0.19387    0.88208    0.63707    1.000
    C1       C        0.47836    0.94249    0.72677    1.000
    H1       H        0.10025    0.46209    0.00304    1.000
    C2       C        0.31488    0.94006    0.72883    1.000
    O3       O        0.02208    0.83332    0.26796    1.000
    O4       O        0.11792    0.31179    0.97040    1.000
    C3       C        0.05751    0.53587    0.06010    1.000
    H2       H        0.53791    0.63816    0.33637    1.000
    C4       C        0.05994    0.37482    0.06216    1.000
    O5       O        0.16668    0.18876    0.60130    1.000
    O6       O        0.68821    0.80613    0.30374    1.000
    C5       C        0.46413    0.52164    0.39344    1.000
    H3       H        0.36184    0.89975    0.66971    1.000
    C6       C        0.62518    0.68512    0.39550    1.000
    O7       O        0.97792    0.81124    0.06537    1.000
    O8       O        0.88208    0.19387    0.36293    1.000
    C7       C        0.94249    0.47836    0.27323    1.000
    H4       H        0.46209    0.10025    0.99696    1.000
    C8       C        0.94006    0.31488    0.27117    1.000
    O9       O        0.83332    0.02208    0.73204    1.000
    O10      O        0.31179    0.11792    0.02960    1.000
    C9       C        0.53587    0.05751    0.93990    1.000
    H5       H        0.63816    0.53791    0.66363    1.000
    C10      C        0.37482    0.05994    0.93784    1.000
    O11      O        0.18876    0.16668    0.39870    1.000
    O12      O        0.80613    0.68821    0.69626    1.000
    C11      C        0.52164    0.46413    0.60656    1.000
    H6       H        0.89975    0.36184    0.33029    1.000
    C12      C        0.68512    0.62518    0.60450    1.000
    Fe1      Fe       0.05597    0.05597    0.00000    1.000
    Fe2      Fe       0.94403    0.00000    0.33333    1.000
    Fe3      Fe       0.00000    0.94403    0.66667    1.000
    O13      O        0.11330    0.00000    0.83333    1.000
    C13      C        0.75580    0.00000    0.83333    1.000
    C14      C        0.58218    0.00000    0.83333    1.000
    C15      C        0.26950    0.00000    0.83333    1.000
    O14      O        0.00000    0.11330    0.16667    1.000
    C16      C        0.00000    0.75580    0.16667    1.000
    C17      C        0.00000    0.58218    0.16667    1.000
    C18      C        0.00000    0.26950    0.16667    1.000
    O15      O        0.88670    0.88670    0.50000    1.000
    C19      C        0.24420    0.24420    0.50000    1.000
    C20      C        0.41782    0.41782    0.50000    1.000
    C21      C        0.73050    0.73050    0.50000    1.000
