# CIF file generated by openbabel 3.1.0, see https://openbabel.org
data_I
_chemical_name_common 'image0'
_cell_length_a 8.464
_cell_length_b 9.324
_cell_length_c 12.882
_cell_angle_alpha 90
_cell_angle_beta 105.466
_cell_angle_gamma 90
_space_group_name_H-M_alt 'P 1'
_space_group_name_Hall 'P 1'
loop_
    _symmetry_equiv_pos_as_xyz
    x,y,z
loop_
    _atom_site_label
    _atom_site_type_symbol
    _atom_site_fract_x
    _atom_site_fract_y
    _atom_site_fract_z
    _atom_site_occupancy
    Mn1      Mn       0.25567    0.74878    0.00907    1.000
    N1       N        0.31920    0.79650    0.18576    1.000
    N2       N        0.26524    0.79781    0.26021    1.000
    N3       N        0.21220    0.80390    0.33465    1.000
    N4       N        0.04180    0.61941    0.01519    1.000
    N5       N        0.10370    0.94455    0.97035    1.000
    N6       N        0.47881    0.87657    0.00673    1.000
    N7       N        0.42630    0.56029    0.05178    1.000
    Mn2      Mn       0.74433    0.24878    0.49093    1.000
    N8       N        0.68080    0.29650    0.31424    1.000
    N9       N        0.73476    0.29781    0.23979    1.000
    N10      N        0.78780    0.30390    0.16535    1.000
    N11      N        0.95820    0.11941    0.48481    1.000
    N12      N        0.89630    0.44455    0.52965    1.000
    N13      N        0.52119    0.37657    0.49327    1.000
    N14      N        0.57370    0.06029    0.44822    1.000
    Mn3      Mn       0.74433    0.25122    0.99093    1.000
    N15      N        0.68080    0.20350    0.81424    1.000
    N16      N        0.73476    0.20219    0.73979    1.000
    N17      N        0.78780    0.19610    0.66535    1.000
    N18      N        0.95820    0.38059    0.98481    1.000
    N19      N        0.89630    0.05545    0.02965    1.000
    N20      N        0.52119    0.12343    0.99327    1.000
    N21      N        0.57370    0.43971    0.94822    1.000
    Mn4      Mn       0.25567    0.75122    0.50907    1.000
    N22      N        0.31920    0.70350    0.68576    1.000
    N23      N        0.26524    0.70219    0.76021    1.000
    N24      N        0.21220    0.69610    0.83465    1.000
    N25      N        0.04180    0.88059    0.51519    1.000
    N26      N        0.10370    0.55545    0.47035    1.000
    N27      N        0.47881    0.62343    0.50673    1.000
    N28      N        0.42630    0.93971    0.55178    1.000
    N29      N        0.00000    0.50000    0.00000    1.000
    N30      N        0.00000    0.00000    0.50000    1.000
    N31      N        0.00000    0.00000    0.00000    1.000
    N32      N        0.00000    0.50000    0.50000    1.000
    N33      N        0.50000    0.00000    0.00000    1.000
    N34      N        0.50000    0.50000    0.50000    1.000
    N35      N        0.50000    0.50000    0.00000    1.000
    N36      N        0.50000    0.00000    0.50000    1.000
