# CIF file generated by openbabel 3.1.0, see https://openbabel.org
data_I
_chemical_name_common 'MUVHAN_clean'
_cell_length_a 11.4341
_cell_length_b 12.5791
_cell_length_c 14.7759
_cell_angle_alpha 90
_cell_angle_beta 90
_cell_angle_gamma 90
_space_group_name_H-M_alt 'P 1'
_space_group_name_Hall 'P 1'
loop_
    _symmetry_equiv_pos_as_xyz
    x,y,z
loop_
    _atom_site_label
    _atom_site_type_symbol
    _atom_site_fract_x
    _atom_site_fract_y
    _atom_site_fract_z
    _atom_site_occupancy
    Zn1      Zn       0.50000    0.50000    0.25000    1.000
    Zn2      Zn       0.50000    0.50000    0.75000    1.000
    H1       H        0.69670    0.21790    0.13610    1.000
    H2       H        0.82860    0.07910    0.13590    1.000
    H3       H        0.91060    0.34440    0.28040    1.000
    H4       H        0.70930    0.34960    0.28080    1.000
    H5       H        0.30330    0.78210    0.13610    1.000
    H6       H        0.17140    0.92090    0.13590    1.000
    H7       H        0.08940    0.65560    0.28040    1.000
    H8       H        0.29070    0.65040    0.28080    1.000
    H9       H        0.30330    0.21790    0.36390    1.000
    H10      H        0.17140    0.07910    0.36410    1.000
    H11      H        0.08940    0.34440    0.21960    1.000
    H12      H        0.29070    0.34960    0.21920    1.000
    H13      H        0.69670    0.78210    0.36390    1.000
    H14      H        0.82860    0.92090    0.36410    1.000
    H15      H        0.91060    0.65560    0.21960    1.000
    H16      H        0.70930    0.65040    0.21920    1.000
    H17      H        0.30330    0.78210    0.86390    1.000
    H18      H        0.17140    0.92090    0.86410    1.000
    H19      H        0.08940    0.65560    0.71960    1.000
    H20      H        0.29070    0.65040    0.71920    1.000
    H21      H        0.69670    0.21790    0.86390    1.000
    H22      H        0.82860    0.07910    0.86410    1.000
    H23      H        0.91060    0.34440    0.71960    1.000
    H24      H        0.70930    0.34960    0.71920    1.000
    H25      H        0.69670    0.78210    0.63610    1.000
    H26      H        0.82860    0.92090    0.63590    1.000
    H27      H        0.91060    0.65560    0.78040    1.000
    H28      H        0.70930    0.65040    0.78080    1.000
    H29      H        0.30330    0.21790    0.63610    1.000
    H30      H        0.17140    0.07910    0.63590    1.000
    H31      H        0.08940    0.34440    0.78040    1.000
    H32      H        0.29070    0.34960    0.78080    1.000
    C1       C        0.87186    0.40778    0.26813    1.000
    C2       C        0.75022    0.41168    0.26799    1.000
    C3       C        0.53842    0.34899    0.08035    1.000
    C4       C        0.72070    0.18890    0.08133    1.000
    C5       C        0.80140    0.10660    0.08143    1.000
    C6       C        0.92140    0.90930    0.08100    1.000
    C7       C        0.12814    0.59222    0.26813    1.000
    C8       C        0.24978    0.58832    0.26799    1.000
    C9       C        0.46158    0.65101    0.08035    1.000
    C10      C        0.27930    0.81110    0.08133    1.000
    C11      C        0.19860    0.89340    0.08143    1.000
    C12      C        0.07860    0.09070    0.08100    1.000
    C13      C        0.12814    0.40778    0.23187    1.000
    C14      C        0.24978    0.41168    0.23201    1.000
    C15      C        0.46158    0.34899    0.41965    1.000
    C16      C        0.27930    0.18890    0.41867    1.000
    C17      C        0.19860    0.10660    0.41857    1.000
    C18      C        0.07860    0.90930    0.41900    1.000
    C19      C        0.87186    0.59222    0.23187    1.000
    C20      C        0.75022    0.58832    0.23201    1.000
    C21      C        0.53842    0.65101    0.41965    1.000
    C22      C        0.72070    0.81110    0.41867    1.000
    C23      C        0.80140    0.89340    0.41857    1.000
    C24      C        0.92140    0.09070    0.41900    1.000
    C25      C        0.12814    0.59222    0.73187    1.000
    C26      C        0.24978    0.58832    0.73201    1.000
    C27      C        0.46158    0.65101    0.91965    1.000
    C28      C        0.27930    0.81110    0.91867    1.000
    C29      C        0.19860    0.89340    0.91857    1.000
    C30      C        0.07860    0.09070    0.91900    1.000
    C31      C        0.87186    0.40778    0.73187    1.000
    C32      C        0.75022    0.41168    0.73201    1.000
    C33      C        0.53842    0.34899    0.91965    1.000
    C34      C        0.72070    0.18890    0.91867    1.000
    C35      C        0.80140    0.10660    0.91857    1.000
    C36      C        0.92140    0.90930    0.91900    1.000
    C37      C        0.87186    0.59222    0.76813    1.000
    C38      C        0.75022    0.58832    0.76799    1.000
    C39      C        0.53842    0.65101    0.58035    1.000
    C40      C        0.72070    0.81110    0.58133    1.000
    C41      C        0.80140    0.89340    0.58143    1.000
    C42      C        0.92140    0.09070    0.58100    1.000
    C43      C        0.12814    0.40778    0.76813    1.000
    C44      C        0.24978    0.41168    0.76799    1.000
    C45      C        0.46158    0.34899    0.58035    1.000
    C46      C        0.27930    0.18890    0.58133    1.000
    C47      C        0.19860    0.10660    0.58143    1.000
    C48      C        0.07860    0.90930    0.58100    1.000
    C49      C        0.93510    0.50000    0.25000    1.000
    C50      C        0.06490    0.50000    0.25000    1.000
    C51      C        0.06490    0.50000    0.75000    1.000
    C52      C        0.93510    0.50000    0.75000    1.000
    C53      C        0.58520    0.31060    0.00000    1.000
    C54      C        0.67640    0.23000    0.00000    1.000
    C55      C        0.84170    0.06480    0.00000    1.000
    C56      C        0.93400    0.97640    0.00000    1.000
    C57      C        0.41480    0.68940    0.00000    1.000
    C58      C        0.32360    0.77000    0.00000    1.000
    C59      C        0.15830    0.93520    0.00000    1.000
    C60      C        0.06600    0.02360    0.00000    1.000
    C61      C        0.41480    0.31060    0.50000    1.000
    C62      C        0.32360    0.23000    0.50000    1.000
    C63      C        0.15830    0.06480    0.50000    1.000
    C64      C        0.06600    0.97640    0.50000    1.000
    C65      C        0.58520    0.68940    0.50000    1.000
    C66      C        0.67640    0.77000    0.50000    1.000
    C67      C        0.84170    0.93520    0.50000    1.000
    C68      C        0.93400    0.02360    0.50000    1.000
    N1       N        0.50101    0.37981    0.14765    1.000
    N2       N        0.91080    0.85920    0.14470    1.000
    N3       N        0.49899    0.62019    0.14765    1.000
    N4       N        0.08920    0.14080    0.14470    1.000
    N5       N        0.49899    0.37981    0.35235    1.000
    N6       N        0.08920    0.85920    0.35530    1.000
    N7       N        0.50101    0.62019    0.35235    1.000
    N8       N        0.91080    0.14080    0.35530    1.000
    N9       N        0.49899    0.62019    0.85235    1.000
    N10      N        0.08920    0.14080    0.85530    1.000
    N11      N        0.50101    0.37981    0.85235    1.000
    N12      N        0.91080    0.85920    0.85530    1.000
    N13      N        0.50101    0.62019    0.64765    1.000
    N14      N        0.91080    0.14080    0.64470    1.000
    N15      N        0.49899    0.37981    0.64765    1.000
    N16      N        0.08920    0.85920    0.64470    1.000
    N17      N        0.68970    0.50000    0.25000    1.000
    N18      N        0.31030    0.50000    0.25000    1.000
    N19      N        0.31030    0.50000    0.75000    1.000
    N20      N        0.68970    0.50000    0.75000    1.000
