# CIF file generated by openbabel 3.1.0, see https://openbabel.org
data_I
_chemical_name_common 'image0'
_cell_length_a 38.028
_cell_length_b 9.647
_cell_length_c 9.871
_cell_angle_alpha 90
_cell_angle_beta 97.49
_cell_angle_gamma 90
_space_group_name_H-M_alt 'P 1'
_space_group_name_Hall 'P 1'
loop_
    _symmetry_equiv_pos_as_xyz
    x,y,z
loop_
    _atom_site_label
    _atom_site_type_symbol
    _atom_site_fract_x
    _atom_site_fract_y
    _atom_site_fract_z
    _atom_site_occupancy
    Zn1      Zn       0.28442    0.17537    0.40152    1.000
    N1       N        0.26802    0.96900    0.75790    1.000
    N2       N        0.24357    0.15340    0.64620    1.000
    N3       N        0.26879    0.09780    0.57430    1.000
    O1       O        0.33050    0.23110    0.31400    1.000
    O2       O        0.33930    0.09600    0.45900    1.000
    C1       C        0.35090    0.15200    0.37750    1.000
    C2       C        0.38760    0.15140    0.34850    1.000
    C3       C        0.41210    0.08570    0.44400    1.000
    H1       H        0.40480    0.04530    0.52120    1.000
    C4       C        0.44760    0.08040    0.42420    1.000
    H2       H        0.46410    0.03640    0.48810    1.000
    C5       C        0.45859    0.14070    0.30880    1.000
    C6       C        0.43404    0.20640    0.21330    1.000
    H3       H        0.44140    0.24670    0.13610    1.000
    C7       C        0.39854    0.21170    0.23320    1.000
    H4       H        0.38210    0.25570    0.16930    1.000
    C8       C        0.49610    0.14460    0.29970    1.000
    H5       H        0.51270    0.14710    0.37760    1.000
    C9       C        0.24465    0.07230    0.75550    1.000
    H6       H        0.23040    0.08620    0.82410    1.000
    C10      C        0.28218    0.99070    0.64160    1.000
    H7       H        0.29970    0.93480    0.61260    1.000
    Zn2      Zn       0.78442    0.67537    0.40152    1.000
    N4       N        0.76802    0.46900    0.75790    1.000
    N5       N        0.74357    0.65340    0.64620    1.000
    N6       N        0.76879    0.59780    0.57430    1.000
    O3       O        0.83050    0.73110    0.31400    1.000
    O4       O        0.83930    0.59600    0.45900    1.000
    C11      C        0.85090    0.65200    0.37750    1.000
    C12      C        0.88760    0.65140    0.34850    1.000
    C13      C        0.91210    0.58570    0.44400    1.000
    H8       H        0.90480    0.54530    0.52120    1.000
    C14      C        0.94760    0.58040    0.42420    1.000
    H9       H        0.96410    0.53640    0.48810    1.000
    C15      C        0.95859    0.64070    0.30880    1.000
    C16      C        0.93404    0.70640    0.21330    1.000
    H10      H        0.94140    0.74670    0.13610    1.000
    C17      C        0.89854    0.71170    0.23320    1.000
    H11      H        0.88210    0.75570    0.16930    1.000
    C18      C        0.99610    0.64460    0.29970    1.000
    H12      H        0.01270    0.64710    0.37760    1.000
    C19      C        0.74465    0.57230    0.75550    1.000
    H13      H        0.73040    0.58620    0.82410    1.000
    C20      C        0.78218    0.49070    0.64160    1.000
    H14      H        0.79970    0.43480    0.61260    1.000
    Zn3      Zn       0.71558    0.17537    0.09848    1.000
    N7       N        0.73198    0.96900    0.74210    1.000
    N8       N        0.75643    0.15340    0.85380    1.000
    N9       N        0.73121    0.09780    0.92570    1.000
    O5       O        0.66950    0.23110    0.18600    1.000
    O6       O        0.66070    0.09600    0.04100    1.000
    C21      C        0.64910    0.15200    0.12250    1.000
    C22      C        0.61240    0.15140    0.15150    1.000
    C23      C        0.58790    0.08570    0.05600    1.000
    H15      H        0.59520    0.04530    0.97880    1.000
    C24      C        0.55240    0.08040    0.07580    1.000
    H16      H        0.53590    0.03640    0.01190    1.000
    C25      C        0.54141    0.14070    0.19120    1.000
    C26      C        0.56596    0.20640    0.28670    1.000
    H17      H        0.55860    0.24670    0.36390    1.000
    C27      C        0.60146    0.21170    0.26680    1.000
    H18      H        0.61790    0.25570    0.33070    1.000
    C28      C        0.50390    0.14460    0.20030    1.000
    H19      H        0.48730    0.14710    0.12240    1.000
    C29      C        0.75535    0.07230    0.74450    1.000
    H20      H        0.76960    0.08620    0.67590    1.000
    C30      C        0.71782    0.99070    0.85840    1.000
    H21      H        0.70030    0.93480    0.88740    1.000
    Zn4      Zn       0.21558    0.67537    0.09848    1.000
    N10      N        0.23198    0.46900    0.74210    1.000
    N11      N        0.25643    0.65340    0.85380    1.000
    N12      N        0.23121    0.59780    0.92570    1.000
    O7       O        0.16950    0.73110    0.18600    1.000
    O8       O        0.16070    0.59600    0.04100    1.000
    C31      C        0.14910    0.65200    0.12250    1.000
    C32      C        0.11240    0.65140    0.15150    1.000
    C33      C        0.08790    0.58570    0.05600    1.000
    H22      H        0.09520    0.54530    0.97880    1.000
    C34      C        0.05240    0.58040    0.07580    1.000
    H23      H        0.03590    0.53640    0.01190    1.000
    C35      C        0.04141    0.64070    0.19120    1.000
    C36      C        0.06596    0.70640    0.28670    1.000
    H24      H        0.05860    0.74670    0.36390    1.000
    C37      C        0.10146    0.71170    0.26680    1.000
    H25      H        0.11790    0.75570    0.33070    1.000
    C38      C        0.00390    0.64460    0.20030    1.000
    H26      H        0.98730    0.64710    0.12240    1.000
    C39      C        0.25535    0.57230    0.74450    1.000
    H27      H        0.26960    0.58620    0.67590    1.000
    C40      C        0.21782    0.49070    0.85840    1.000
    H28      H        0.20030    0.43480    0.88740    1.000
    Zn5      Zn       0.71558    0.82463    0.59848    1.000
    N13      N        0.73198    0.03100    0.24210    1.000
    N14      N        0.75643    0.84660    0.35380    1.000
    N15      N        0.73121    0.90220    0.42570    1.000
    O9       O        0.66950    0.76890    0.68600    1.000
    O10      O        0.66070    0.90400    0.54100    1.000
    C41      C        0.64910    0.84800    0.62250    1.000
    C42      C        0.61240    0.84860    0.65150    1.000
    C43      C        0.58790    0.91430    0.55600    1.000
    H29      H        0.59520    0.95470    0.47880    1.000
    C44      C        0.55240    0.91960    0.57580    1.000
    H30      H        0.53590    0.96360    0.51190    1.000
    C45      C        0.54141    0.85930    0.69120    1.000
    C46      C        0.56596    0.79360    0.78670    1.000
    H31      H        0.55860    0.75330    0.86390    1.000
    C47      C        0.60146    0.78830    0.76680    1.000
    H32      H        0.61790    0.74430    0.83070    1.000
    C48      C        0.50390    0.85540    0.70030    1.000
    H33      H        0.48730    0.85290    0.62240    1.000
    C49      C        0.75535    0.92770    0.24450    1.000
    H34      H        0.76960    0.91380    0.17590    1.000
    C50      C        0.71782    0.00930    0.35840    1.000
    H35      H        0.70030    0.06520    0.38740    1.000
    Zn6      Zn       0.21558    0.32463    0.59848    1.000
    N16      N        0.23198    0.53100    0.24210    1.000
    N17      N        0.25643    0.34660    0.35380    1.000
    N18      N        0.23121    0.40220    0.42570    1.000
    O11      O        0.16950    0.26890    0.68600    1.000
    O12      O        0.16070    0.40400    0.54100    1.000
    C51      C        0.14910    0.34800    0.62250    1.000
    C52      C        0.11240    0.34860    0.65150    1.000
    C53      C        0.08790    0.41430    0.55600    1.000
    H36      H        0.09520    0.45470    0.47880    1.000
    C54      C        0.05240    0.41960    0.57580    1.000
    H37      H        0.03590    0.46360    0.51190    1.000
    C55      C        0.04141    0.35930    0.69120    1.000
    C56      C        0.06596    0.29360    0.78670    1.000
    H38      H        0.05860    0.25330    0.86390    1.000
    C57      C        0.10146    0.28830    0.76680    1.000
    H39      H        0.11790    0.24430    0.83070    1.000
    C58      C        0.00390    0.35540    0.70030    1.000
    H40      H        0.98730    0.35290    0.62240    1.000
    C59      C        0.25535    0.42770    0.24450    1.000
    H41      H        0.26960    0.41380    0.17590    1.000
    C60      C        0.21782    0.50930    0.35840    1.000
    H42      H        0.20030    0.56520    0.38740    1.000
    Zn7      Zn       0.28442    0.82463    0.90152    1.000
    N19      N        0.26802    0.03100    0.25790    1.000
    N20      N        0.24357    0.84660    0.14620    1.000
    N21      N        0.26879    0.90220    0.07430    1.000
    O13      O        0.33050    0.76890    0.81400    1.000
    O14      O        0.33930    0.90400    0.95900    1.000
    C61      C        0.35090    0.84800    0.87750    1.000
    C62      C        0.38760    0.84860    0.84850    1.000
    C63      C        0.41210    0.91430    0.94400    1.000
    H43      H        0.40480    0.95470    0.02120    1.000
    C64      C        0.44760    0.91960    0.92420    1.000
    H44      H        0.46410    0.96360    0.98810    1.000
    C65      C        0.45859    0.85930    0.80880    1.000
    C66      C        0.43404    0.79360    0.71330    1.000
    H45      H        0.44140    0.75330    0.63610    1.000
    C67      C        0.39854    0.78830    0.73320    1.000
    H46      H        0.38210    0.74430    0.66930    1.000
    C68      C        0.49610    0.85540    0.79970    1.000
    H47      H        0.51270    0.85290    0.87760    1.000
    C69      C        0.24465    0.92770    0.25550    1.000
    H48      H        0.23040    0.91380    0.32410    1.000
    C70      C        0.28218    0.00930    0.14160    1.000
    H49      H        0.29970    0.06520    0.11260    1.000
    Zn8      Zn       0.78442    0.32463    0.90152    1.000
    N22      N        0.76802    0.53100    0.25790    1.000
    N23      N        0.74357    0.34660    0.14620    1.000
    N24      N        0.76879    0.40220    0.07430    1.000
    O15      O        0.83050    0.26890    0.81400    1.000
    O16      O        0.83930    0.40400    0.95900    1.000
    C71      C        0.85090    0.34800    0.87750    1.000
    C72      C        0.88760    0.34860    0.84850    1.000
    C73      C        0.91210    0.41430    0.94400    1.000
    H50      H        0.90480    0.45470    0.02120    1.000
    C74      C        0.94760    0.41960    0.92420    1.000
    H51      H        0.96410    0.46360    0.98810    1.000
    C75      C        0.95859    0.35930    0.80880    1.000
    C76      C        0.93404    0.29360    0.71330    1.000
    H52      H        0.94140    0.25330    0.63610    1.000
    C77      C        0.89854    0.28830    0.73320    1.000
    H53      H        0.88210    0.24430    0.66930    1.000
    C78      C        0.99610    0.35540    0.79970    1.000
    H54      H        0.01270    0.35290    0.87760    1.000
    C79      C        0.74465    0.42770    0.25550    1.000
    H55      H        0.73040    0.41380    0.32410    1.000
    C80      C        0.78218    0.50930    0.14160    1.000
    H56      H        0.79970    0.56520    0.11260    1.000
