# CIF file generated by openbabel 3.1.0, see https://openbabel.org
data_I
_chemical_name_common 'image0'
_cell_length_a 17.342
_cell_length_b 15.8773
_cell_length_c 18.855
_cell_angle_alpha 90
_cell_angle_beta 90
_cell_angle_gamma 90
_space_group_name_H-M_alt 'P 1'
_space_group_name_Hall 'P 1'
loop_
    _symmetry_equiv_pos_as_xyz
    x,y,z
loop_
    _atom_site_label
    _atom_site_type_symbol
    _atom_site_fract_x
    _atom_site_fract_y
    _atom_site_fract_z
    _atom_site_occupancy
    Zn1      Zn       0.24225    0.01105    0.03270    1.000
    O1       O        0.19938    0.89620    0.02116    1.000
    N1       N        0.26991    0.12310    0.83323    1.000
    N2       N        0.26185    0.05070    0.93049    1.000
    O2       O        0.60257    0.52019    0.00032    1.000
    N3       N        0.35167    0.96679    0.05481    1.000
    C1       C        0.37716    0.89340    0.03356    1.000
    H1       H        0.35010    0.85630    0.00460    1.000
    O3       O        0.23063    0.13234    0.06728    1.000
    C2       C        0.50490    0.65820    0.03028    1.000
    H2       H        0.48240    0.60500    0.02940    1.000
    N4       N        0.44782    0.87953    0.05964    1.000
    O4       O        0.22450    0.04015    0.15257    1.000
    N5       N        0.31000    0.00723    0.88504    1.000
    C3       C        0.57193    0.81760    0.03030    1.000
    H3       H        0.59380    0.87110    0.02970    1.000
    C4       C        0.23879    0.11940    0.89865    1.000
    H4       H        0.20600    0.15950    0.91810    1.000
    C5       C        0.49475    0.80674    0.04633    1.000
    C6       C        0.63066    0.59118    0.99669    1.000
    C7       C        0.61584    0.74730    0.01490    1.000
    H5       H        0.66800    0.75340    0.00490    1.000
    C8       C        0.23990    0.31540    0.68446    1.000
    C9       C        0.58313    0.66755    0.01443    1.000
    C10      C        0.31410    0.05180    0.82721    1.000
    H6       H        0.34290    0.03730    0.78740    1.000
    C11      C        0.24490    0.23290    0.66170    1.000
    H7       H        0.24160    0.22050    0.61360    1.000
    C12      C        0.46098    0.72775    0.04730    1.000
    H8       H        0.40930    0.72170    0.05930    1.000
    C13      C        0.26067    0.18820    0.78182    1.000
    N6       N        0.40610    0.00190    0.09790    1.000
    C14      C        0.25790    0.27150    0.80530    1.000
    H9       H        0.26350    0.28440    0.85320    1.000
    C15      C        0.25510    0.16780    0.71105    1.000
    H10      H        0.25800    0.11200    0.69630    1.000
    C16      C        0.23034    0.11340    0.13210    1.000
    C17      C        0.24670    0.33460    0.75530    1.000
    H11      H        0.24380    0.39050    0.77000    1.000
    C18      C        0.46320    0.94840    0.09910    1.000
    H12      H        0.50880    0.95680    0.12410    1.000
    Zn2      Zn       0.74225    0.48895    0.96730    1.000
    O5       O        0.69938    0.60380    0.97884    1.000
    N7       N        0.76991    0.37690    0.16677    1.000
    N8       N        0.76185    0.44930    0.06951    1.000
    O6       O        0.10257    0.97981    0.99968    1.000
    N9       N        0.85167    0.53321    0.94519    1.000
    C19      C        0.87716    0.60660    0.96644    1.000
    H13      H        0.85010    0.64370    0.99540    1.000
    O7       O        0.73063    0.36766    0.93272    1.000
    C20      C        0.00490    0.84180    0.96972    1.000
    H14      H        0.98240    0.89500    0.97060    1.000
    N10      N        0.94782    0.62047    0.94036    1.000
    O8       O        0.72450    0.45985    0.84743    1.000
    N11      N        0.81000    0.49277    0.11496    1.000
    C21      C        0.07193    0.68240    0.96970    1.000
    H15      H        0.09380    0.62890    0.97030    1.000
    C22      C        0.73879    0.38060    0.10135    1.000
    H16      H        0.70600    0.34050    0.08190    1.000
    C23      C        0.99475    0.69326    0.95367    1.000
    C24      C        0.13066    0.90882    0.00331    1.000
    C25      C        0.11584    0.75270    0.98510    1.000
    H17      H        0.16800    0.74660    0.99510    1.000
    C26      C        0.73990    0.18460    0.31554    1.000
    C27      C        0.08313    0.83245    0.98557    1.000
    C28      C        0.81410    0.44820    0.17279    1.000
    H18      H        0.84290    0.46270    0.21260    1.000
    C29      C        0.74490    0.26710    0.33830    1.000
    H19      H        0.74160    0.27950    0.38640    1.000
    C30      C        0.96098    0.77225    0.95270    1.000
    H20      H        0.90930    0.77830    0.94070    1.000
    C31      C        0.76067    0.31180    0.21818    1.000
    N12      N        0.90610    0.49810    0.90210    1.000
    C32      C        0.75790    0.22850    0.19470    1.000
    H21      H        0.76350    0.21560    0.14680    1.000
    C33      C        0.75510    0.33220    0.28895    1.000
    H22      H        0.75800    0.38800    0.30370    1.000
    C34      C        0.73034    0.38660    0.86790    1.000
    C35      C        0.74670    0.16540    0.24470    1.000
    H23      H        0.74380    0.10950    0.23000    1.000
    C36      C        0.96320    0.55160    0.90090    1.000
    H24      H        0.00880    0.54320    0.87590    1.000
    Zn3      Zn       0.74225    0.01105    0.46730    1.000
    O9       O        0.69938    0.89620    0.47884    1.000
    N13      N        0.76991    0.12310    0.66677    1.000
    N14      N        0.76185    0.05070    0.56951    1.000
    O10      O        0.10257    0.52019    0.49968    1.000
    N15      N        0.85167    0.96679    0.44519    1.000
    C37      C        0.87716    0.89340    0.46644    1.000
    H25      H        0.85010    0.85630    0.49540    1.000
    O11      O        0.73063    0.13234    0.43272    1.000
    C38      C        0.00490    0.65820    0.46972    1.000
    H26      H        0.98240    0.60500    0.47060    1.000
    N16      N        0.94782    0.87953    0.44036    1.000
    O12      O        0.72450    0.04015    0.34743    1.000
    N17      N        0.81000    0.00723    0.61496    1.000
    C39      C        0.07193    0.81760    0.46970    1.000
    H27      H        0.09380    0.87110    0.47030    1.000
    C40      C        0.73879    0.11940    0.60135    1.000
    H28      H        0.70600    0.15950    0.58190    1.000
    C41      C        0.99475    0.80674    0.45367    1.000
    C42      C        0.13066    0.59118    0.50331    1.000
    C43      C        0.11584    0.74730    0.48510    1.000
    H29      H        0.16800    0.75340    0.49510    1.000
    C44      C        0.73990    0.31540    0.81554    1.000
    C45      C        0.08313    0.66755    0.48557    1.000
    C46      C        0.81410    0.05180    0.67279    1.000
    H30      H        0.84290    0.03730    0.71260    1.000
    C47      C        0.74490    0.23290    0.83830    1.000
    H31      H        0.74160    0.22050    0.88640    1.000
    C48      C        0.96098    0.72775    0.45270    1.000
    H32      H        0.90930    0.72170    0.44070    1.000
    C49      C        0.76067    0.18820    0.71818    1.000
    N18      N        0.90610    0.00190    0.40210    1.000
    C50      C        0.75790    0.27150    0.69470    1.000
    H33      H        0.76350    0.28440    0.64680    1.000
    C51      C        0.75510    0.16780    0.78895    1.000
    H34      H        0.75800    0.11200    0.80370    1.000
    C52      C        0.73034    0.11340    0.36790    1.000
    C53      C        0.74670    0.33460    0.74470    1.000
    H35      H        0.74380    0.39050    0.73000    1.000
    C54      C        0.96320    0.94840    0.40090    1.000
    H36      H        0.00880    0.95680    0.37590    1.000
    Zn4      Zn       0.24225    0.48895    0.53270    1.000
    O13      O        0.19938    0.60380    0.52116    1.000
    N19      N        0.26991    0.37690    0.33323    1.000
    N20      N        0.26185    0.44930    0.43049    1.000
    O14      O        0.60257    0.97981    0.50032    1.000
    N21      N        0.35167    0.53321    0.55481    1.000
    C55      C        0.37716    0.60660    0.53356    1.000
    H37      H        0.35010    0.64370    0.50460    1.000
    O15      O        0.23063    0.36766    0.56728    1.000
    C56      C        0.50490    0.84180    0.53028    1.000
    H38      H        0.48240    0.89500    0.52940    1.000
    N22      N        0.44782    0.62047    0.55964    1.000
    O16      O        0.22450    0.45985    0.65257    1.000
    N23      N        0.31000    0.49277    0.38504    1.000
    C57      C        0.57193    0.68240    0.53030    1.000
    H39      H        0.59380    0.62890    0.52970    1.000
    C58      C        0.23879    0.38060    0.39865    1.000
    H40      H        0.20600    0.34050    0.41810    1.000
    C59      C        0.49475    0.69326    0.54633    1.000
    C60      C        0.63066    0.90882    0.49669    1.000
    C61      C        0.61584    0.75270    0.51490    1.000
    H41      H        0.66800    0.74660    0.50490    1.000
    C62      C        0.23990    0.18460    0.18446    1.000
    C63      C        0.58313    0.83245    0.51443    1.000
    C64      C        0.31410    0.44820    0.32721    1.000
    H42      H        0.34290    0.46270    0.28740    1.000
    C65      C        0.24490    0.26710    0.16170    1.000
    H43      H        0.24160    0.27950    0.11360    1.000
    C66      C        0.46098    0.77225    0.54730    1.000
    H44      H        0.40930    0.77830    0.55930    1.000
    C67      C        0.26067    0.31180    0.28182    1.000
    N24      N        0.40610    0.49810    0.59790    1.000
    C68      C        0.25790    0.22850    0.30530    1.000
    H45      H        0.26350    0.21560    0.35320    1.000
    C69      C        0.25510    0.33220    0.21105    1.000
    H46      H        0.25800    0.38800    0.19630    1.000
    C70      C        0.23034    0.38660    0.63210    1.000
    C71      C        0.24670    0.16540    0.25530    1.000
    H47      H        0.24380    0.10950    0.27000    1.000
    C72      C        0.46320    0.55160    0.59910    1.000
    H48      H        0.50880    0.54320    0.62410    1.000
    Zn5      Zn       0.25775    0.98895    0.53270    1.000
    O17      O        0.30062    0.10380    0.52116    1.000
    N25      N        0.23009    0.87690    0.33323    1.000
    N26      N        0.23815    0.94930    0.43049    1.000
    O18      O        0.89743    0.47981    0.50032    1.000
    N27      N        0.14833    0.03321    0.55481    1.000
    C73      C        0.12284    0.10660    0.53356    1.000
    H49      H        0.14990    0.14370    0.50460    1.000
    O19      O        0.26937    0.86766    0.56728    1.000
    C74      C        0.99510    0.34180    0.53028    1.000
    H50      H        0.01760    0.39500    0.52940    1.000
    N28      N        0.05218    0.12047    0.55964    1.000
    O20      O        0.27550    0.95985    0.65257    1.000
    N29      N        0.19000    0.99277    0.38504    1.000
    C75      C        0.92807    0.18240    0.53030    1.000
    H51      H        0.90620    0.12890    0.52970    1.000
    C76      C        0.26121    0.88060    0.39865    1.000
    H52      H        0.29400    0.84050    0.41810    1.000
    C77      C        0.00525    0.19326    0.54633    1.000
    C78      C        0.86934    0.40882    0.49669    1.000
    C79      C        0.88416    0.25270    0.51490    1.000
    H53      H        0.83200    0.24660    0.50490    1.000
    C80      C        0.26010    0.68460    0.18446    1.000
    C81      C        0.91687    0.33245    0.51443    1.000
    C82      C        0.18590    0.94820    0.32721    1.000
    H54      H        0.15710    0.96270    0.28740    1.000
    C83      C        0.25510    0.76710    0.16170    1.000
    H55      H        0.25840    0.77950    0.11360    1.000
    C84      C        0.03902    0.27225    0.54730    1.000
    H56      H        0.09070    0.27830    0.55930    1.000
    C85      C        0.23933    0.81180    0.28182    1.000
    N30      N        0.09390    0.99810    0.59790    1.000
    C86      C        0.24210    0.72850    0.30530    1.000
    H57      H        0.23650    0.71560    0.35320    1.000
    C87      C        0.24490    0.83220    0.21105    1.000
    H58      H        0.24200    0.88800    0.19630    1.000
    C88      C        0.26966    0.88660    0.63210    1.000
    C89      C        0.25330    0.66540    0.25530    1.000
    H59      H        0.25620    0.60950    0.27000    1.000
    C90      C        0.03680    0.05160    0.59910    1.000
    H60      H        0.99120    0.04320    0.62410    1.000
    Zn6      Zn       0.75775    0.51105    0.46730    1.000
    O21      O        0.80062    0.39620    0.47884    1.000
    N31      N        0.73009    0.62310    0.66677    1.000
    N32      N        0.73815    0.55070    0.56951    1.000
    O22      O        0.39743    0.02019    0.49968    1.000
    N33      N        0.64833    0.46679    0.44519    1.000
    C91      C        0.62284    0.39340    0.46644    1.000
    H61      H        0.64990    0.35630    0.49540    1.000
    O23      O        0.76937    0.63234    0.43272    1.000
    C92      C        0.49510    0.15820    0.46972    1.000
    H62      H        0.51760    0.10500    0.47060    1.000
    N34      N        0.55218    0.37953    0.44036    1.000
    O24      O        0.77550    0.54015    0.34743    1.000
    N35      N        0.69000    0.50723    0.61496    1.000
    C93      C        0.42807    0.31760    0.46970    1.000
    H63      H        0.40620    0.37110    0.47030    1.000
    C94      C        0.76121    0.61940    0.60135    1.000
    H64      H        0.79400    0.65950    0.58190    1.000
    C95      C        0.50525    0.30674    0.45367    1.000
    C96      C        0.36934    0.09118    0.50331    1.000
    C97      C        0.38416    0.24730    0.48510    1.000
    H65      H        0.33200    0.25340    0.49510    1.000
    C98      C        0.76010    0.81540    0.81554    1.000
    C99      C        0.41687    0.16755    0.48557    1.000
    C100     C        0.68590    0.55180    0.67279    1.000
    H66      H        0.65710    0.53730    0.71260    1.000
    C101     C        0.75510    0.73290    0.83830    1.000
    H67      H        0.75840    0.72050    0.88640    1.000
    C102     C        0.53902    0.22775    0.45270    1.000
    H68      H        0.59070    0.22170    0.44070    1.000
    C103     C        0.73933    0.68820    0.71818    1.000
    N36      N        0.59390    0.50190    0.40210    1.000
    C104     C        0.74210    0.77150    0.69470    1.000
    H69      H        0.73650    0.78440    0.64680    1.000
    C105     C        0.74490    0.66780    0.78895    1.000
    H70      H        0.74200    0.61200    0.80370    1.000
    C106     C        0.76966    0.61340    0.36790    1.000
    C107     C        0.75330    0.83460    0.74470    1.000
    H71      H        0.75620    0.89050    0.73000    1.000
    C108     C        0.53680    0.44840    0.40090    1.000
    H72      H        0.49120    0.45680    0.37590    1.000
    Zn7      Zn       0.75775    0.98895    0.96730    1.000
    O25      O        0.80062    0.10380    0.97884    1.000
    N37      N        0.73009    0.87690    0.16677    1.000
    N38      N        0.73815    0.94930    0.06951    1.000
    O26      O        0.39743    0.47981    0.99968    1.000
    N39      N        0.64833    0.03321    0.94519    1.000
    C109     C        0.62284    0.10660    0.96644    1.000
    H73      H        0.64990    0.14370    0.99540    1.000
    O27      O        0.76937    0.86766    0.93272    1.000
    C110     C        0.49510    0.34180    0.96972    1.000
    H74      H        0.51760    0.39500    0.97060    1.000
    N40      N        0.55218    0.12047    0.94036    1.000
    O28      O        0.77550    0.95985    0.84743    1.000
    N41      N        0.69000    0.99277    0.11496    1.000
    C111     C        0.42807    0.18240    0.96970    1.000
    H75      H        0.40620    0.12890    0.97030    1.000
    C112     C        0.76121    0.88060    0.10135    1.000
    H76      H        0.79400    0.84050    0.08190    1.000
    C113     C        0.50525    0.19326    0.95367    1.000
    C114     C        0.36934    0.40882    0.00331    1.000
    C115     C        0.38416    0.25270    0.98510    1.000
    H77      H        0.33200    0.24660    0.99510    1.000
    C116     C        0.76010    0.68460    0.31554    1.000
    C117     C        0.41687    0.33245    0.98557    1.000
    C118     C        0.68590    0.94820    0.17279    1.000
    H78      H        0.65710    0.96270    0.21260    1.000
    C119     C        0.75510    0.76710    0.33830    1.000
    H79      H        0.75840    0.77950    0.38640    1.000
    C120     C        0.53902    0.27225    0.95270    1.000
    H80      H        0.59070    0.27830    0.94070    1.000
    C121     C        0.73933    0.81180    0.21818    1.000
    N42      N        0.59390    0.99810    0.90210    1.000
    C122     C        0.74210    0.72850    0.19470    1.000
    H81      H        0.73650    0.71560    0.14680    1.000
    C123     C        0.74490    0.83220    0.28895    1.000
    H82      H        0.74200    0.88800    0.30370    1.000
    C124     C        0.76966    0.88660    0.86790    1.000
    C125     C        0.75330    0.66540    0.24470    1.000
    H83      H        0.75620    0.60950    0.23000    1.000
    C126     C        0.53680    0.05160    0.90090    1.000
    H84      H        0.49120    0.04320    0.87590    1.000
    Zn8      Zn       0.25775    0.51105    0.03270    1.000
    O29      O        0.30062    0.39620    0.02116    1.000
    N43      N        0.23009    0.62310    0.83323    1.000
    N44      N        0.23815    0.55070    0.93049    1.000
    O30      O        0.89743    0.02019    0.00032    1.000
    N45      N        0.14833    0.46679    0.05481    1.000
    C127     C        0.12284    0.39340    0.03356    1.000
    H85      H        0.14990    0.35630    0.00460    1.000
    O31      O        0.26937    0.63234    0.06728    1.000
    C128     C        0.99510    0.15820    0.03028    1.000
    H86      H        0.01760    0.10500    0.02940    1.000
    N46      N        0.05218    0.37953    0.05964    1.000
    O32      O        0.27550    0.54015    0.15257    1.000
    N47      N        0.19000    0.50723    0.88504    1.000
    C129     C        0.92807    0.31760    0.03030    1.000
    H87      H        0.90620    0.37110    0.02970    1.000
    C130     C        0.26121    0.61940    0.89865    1.000
    H88      H        0.29400    0.65950    0.91810    1.000
    C131     C        0.00525    0.30674    0.04633    1.000
    C132     C        0.86934    0.09118    0.99669    1.000
    C133     C        0.88416    0.24730    0.01490    1.000
    H89      H        0.83200    0.25340    0.00490    1.000
    C134     C        0.26010    0.81540    0.68446    1.000
    C135     C        0.91687    0.16755    0.01443    1.000
    C136     C        0.18590    0.55180    0.82721    1.000
    H90      H        0.15710    0.53730    0.78740    1.000
    C137     C        0.25510    0.73290    0.66170    1.000
    H91      H        0.25840    0.72050    0.61360    1.000
    C138     C        0.03902    0.22775    0.04730    1.000
    H92      H        0.09070    0.22170    0.05930    1.000
    C139     C        0.23933    0.68820    0.78182    1.000
    N48      N        0.09390    0.50190    0.09790    1.000
    C140     C        0.24210    0.77150    0.80530    1.000
    H93      H        0.23650    0.78440    0.85320    1.000
    C141     C        0.24490    0.66780    0.71105    1.000
    H94      H        0.24200    0.61200    0.69630    1.000
    C142     C        0.26966    0.61340    0.13210    1.000
    C143     C        0.25330    0.83460    0.75530    1.000
    H95      H        0.25620    0.89050    0.77000    1.000
    C144     C        0.03680    0.44840    0.09910    1.000
    H96      H        0.99120    0.45680    0.12410    1.000
