# CIF file generated by openbabel 3.1.0, see https://openbabel.org
data_I
_chemical_name_common 'image0'
_cell_length_a 7.8758
_cell_length_b 9.1877
_cell_length_c 11.3427
_cell_angle_alpha 112.883
_cell_angle_beta 91.057
_cell_angle_gamma 105.877
_space_group_name_H-M_alt 'P 1'
_space_group_name_Hall 'P 1'
loop_
    _symmetry_equiv_pos_as_xyz
    x,y,z
loop_
    _atom_site_label
    _atom_site_type_symbol
    _atom_site_fract_x
    _atom_site_fract_y
    _atom_site_fract_z
    _atom_site_occupancy
    O1       O        0.71600    0.88920    0.47710    1.000
    H1       H        0.68100    0.84100    0.52900    1.000
    H2       H        0.71100    0.81300    0.39880    1.000
    O2       O        0.98190    0.17990    0.67790    1.000
    O3       O        0.26710    0.32380    0.75390    1.000
    O4       O        0.50030    0.98610    0.31560    1.000
    O5       O        0.38510    0.18690    0.32750    1.000
    C1       C        0.10540    0.29360    0.76410    1.000
    C2       C        0.05010    0.39770    0.88640    1.000
    C3       C        0.87100    0.37690    0.90150    1.000
    H3       H        0.78350    0.29460    0.83530    1.000
    C4       C        0.17870    0.52410    0.98730    1.000
    H4       H        0.29910    0.54120    0.97910    1.000
    C5       C        0.45240    0.07450    0.26920    1.000
    C6       C        0.47760    0.03780    0.12960    1.000
    C7       C        0.43110    0.12730    0.06710    1.000
    H5       H        0.38460    0.21300    0.11170    1.000
    C8       C        0.54700    0.90970    0.06140    1.000
    H6       H        0.57870    0.84860    0.10210    1.000
    O6       O        0.28400    0.11080    0.52290    1.000
    H7       H        0.31900    0.15900    0.47100    1.000
    H8       H        0.28900    0.18700    0.60120    1.000
    O7       O        0.01810    0.82010    0.32210    1.000
    O8       O        0.73290    0.67620    0.24610    1.000
    O9       O        0.49970    0.01390    0.68440    1.000
    O10      O        0.61490    0.81310    0.67250    1.000
    C9       C        0.89460    0.70640    0.23590    1.000
    C10      C        0.94990    0.60230    0.11360    1.000
    C11      C        0.12900    0.62310    0.09850    1.000
    H9       H        0.21650    0.70540    0.16470    1.000
    C12      C        0.82130    0.47590    0.01270    1.000
    H10      H        0.70090    0.45880    0.02090    1.000
    C13      C        0.54760    0.92550    0.73080    1.000
    C14      C        0.52240    0.96220    0.87040    1.000
    C15      C        0.56890    0.87270    0.93290    1.000
    H11      H        0.61540    0.78700    0.88830    1.000
    C16      C        0.45300    0.09030    0.93860    1.000
    H12      H        0.42130    0.15140    0.89790    1.000
    Co1      Co       0.00000    0.00000    0.50000    1.000
    Co2      Co       0.50000    0.00000    0.50000    1.000
