# CIF file generated by openbabel 3.1.0, see https://openbabel.org
data_I
_chemical_name_common 'image0'
_cell_length_a 17.443
_cell_length_b 25.094
_cell_length_c 21.991
_cell_angle_alpha 90
_cell_angle_beta 90
_cell_angle_gamma 90
_space_group_name_H-M_alt 'P 1'
_space_group_name_Hall 'P 1'
loop_
    _symmetry_equiv_pos_as_xyz
    x,y,z
loop_
    _atom_site_label
    _atom_site_type_symbol
    _atom_site_fract_x
    _atom_site_fract_y
    _atom_site_fract_z
    _atom_site_occupancy
    O1       O        0.88110    0.67980    0.56530    1.000
    O2       O        0.93070    0.60920    0.52900    1.000
    O3       O        0.50140    0.36248    0.15526    1.000
    O4       O        0.43600    0.30931    0.21956    1.000
    C1       C        0.43450    0.38930    0.30740    1.000
    H1       H        0.40040    0.36110    0.31220    1.000
    C2       C        0.53010    0.43340    0.25000    1.000
    H2       H        0.56080    0.43610    0.21550    1.000
    C3       C        0.53590    0.47110    0.29580    1.000
    H3       H        0.57160    0.49840    0.29170    1.000
    C4       C        0.43960    0.42750    0.35180    1.000
    H4       H        0.40820    0.42500    0.38590    1.000
    C5       C        0.47130    0.35130    0.20570    1.000
    C6       C        0.47910    0.39200    0.25550    1.000
    Co1      Co       0.99852    0.67884    0.57610    1.000
    C7       C        0.43100    0.53110    0.42150    1.000
    H5       H        0.38330    0.51830    0.40950    1.000
    C8       C        0.23200    0.63900    0.54360    1.000
    C9       C        0.57350    0.56860    0.45820    1.000
    C10      C        0.49580    0.51090    0.39480    1.000
    C11      C        0.16220    0.66540    0.57130    1.000
    C12      C        0.36410    0.59350    0.49420    1.000
    C13      C        0.43490    0.57030    0.46580    1.000
    C14      C        0.36390    0.61440    0.55130    1.000
    H6       H        0.40860    0.61320    0.57440    1.000
    C15      C        0.56700    0.53030    0.41340    1.000
    H7       H        0.61120    0.51700    0.39520    1.000
    C16      C        0.78340    0.56720    0.49800    1.000
    H8       H        0.82380    0.54310    0.49650    1.000
    C17      C        0.29970    0.63720    0.57560    1.000
    H9       H        0.30170    0.65160    0.61450    1.000
    C18      C        0.50770    0.58910    0.48330    1.000
    H10      H        0.51120    0.61590    0.51240    1.000
    C19      C        0.79620    0.61790    0.51790    1.000
    C20      C        0.65060    0.58630    0.47910    1.000
    C21      C        0.29620    0.59540    0.46160    1.000
    H11      H        0.29480    0.58230    0.42200    1.000
    C22      C        0.73580    0.65240    0.51850    1.000
    H12      H        0.74330    0.68690    0.53270    1.000
    C23      C        0.23040    0.61670    0.48700    1.000
    H13      H        0.18470    0.61570    0.46530    1.000
    C24      C        0.71190    0.55130    0.48040    1.000
    H14      H        0.70420    0.51600    0.46890    1.000
    C25      C        0.49060    0.46960    0.34710    1.000
    C26      C        0.66420    0.63760    0.49870    1.000
    H15      H        0.62460    0.66240    0.49850    1.000
    C27      C        0.87460    0.63900    0.53880    1.000
    O5       O        0.17060    0.69256    0.61706    1.000
    O6       O        0.09890    0.65743    0.54320    1.000
    O7       O        0.61890    0.32020    0.06530    1.000
    O8       O        0.56930    0.39080    0.02900    1.000
    O9       O        0.99860    0.63752    0.65526    1.000
    O10      O        0.06400    0.69069    0.71956    1.000
    C28      C        0.06550    0.61070    0.80740    1.000
    H16      H        0.09960    0.63890    0.81220    1.000
    C29      C        0.96990    0.56660    0.75000    1.000
    H17      H        0.93920    0.56390    0.71550    1.000
    C30      C        0.96410    0.52890    0.79580    1.000
    H18      H        0.92840    0.50160    0.79170    1.000
    C31      C        0.06040    0.57250    0.85180    1.000
    H19      H        0.09180    0.57500    0.88590    1.000
    C32      C        0.02870    0.64870    0.70570    1.000
    C33      C        0.02090    0.60800    0.75550    1.000
    Co2      Co       0.50148    0.32116    0.07610    1.000
    C34      C        0.06900    0.46890    0.92150    1.000
    H20      H        0.11670    0.48170    0.90950    1.000
    C35      C        0.26800    0.36100    0.04360    1.000
    C36      C        0.92650    0.43140    0.95820    1.000
    C37      C        0.00420    0.48910    0.89480    1.000
    C38      C        0.33780    0.33460    0.07130    1.000
    C39      C        0.13590    0.40650    0.99420    1.000
    C40      C        0.06510    0.42970    0.96580    1.000
    C41      C        0.13610    0.38560    0.05130    1.000
    H21      H        0.09140    0.38680    0.07440    1.000
    C42      C        0.93300    0.46970    0.91340    1.000
    H22      H        0.88880    0.48300    0.89520    1.000
    C43      C        0.71660    0.43280    0.99800    1.000
    H23      H        0.67620    0.45690    0.99650    1.000
    C44      C        0.20030    0.36280    0.07560    1.000
    H24      H        0.19830    0.34840    0.11450    1.000
    C45      C        0.99230    0.41090    0.98330    1.000
    H25      H        0.98880    0.38410    0.01240    1.000
    C46      C        0.70380    0.38210    0.01790    1.000
    C47      C        0.84940    0.41370    0.97910    1.000
    C48      C        0.20380    0.40460    0.96160    1.000
    H26      H        0.20520    0.41770    0.92200    1.000
    C49      C        0.76420    0.34760    0.01850    1.000
    H27      H        0.75670    0.31310    0.03270    1.000
    C50      C        0.26960    0.38330    0.98700    1.000
    H28      H        0.31530    0.38430    0.96530    1.000
    C51      C        0.78810    0.44870    0.98040    1.000
    H29      H        0.79580    0.48400    0.96890    1.000
    C52      C        0.00940    0.53040    0.84710    1.000
    C53      C        0.83580    0.36240    0.99870    1.000
    H30      H        0.87540    0.33760    0.99850    1.000
    C54      C        0.62540    0.36100    0.03880    1.000
    O11      O        0.32940    0.30744    0.11706    1.000
    O12      O        0.40110    0.34257    0.04320    1.000
    O13      O        0.88110    0.82020    0.56530    1.000
    O14      O        0.93070    0.89080    0.52900    1.000
    O15      O        0.50140    0.13752    0.15526    1.000
    O16      O        0.43600    0.19069    0.21956    1.000
    C55      C        0.43450    0.11070    0.30740    1.000
    H31      H        0.40040    0.13890    0.31220    1.000
    C56      C        0.53010    0.06660    0.25000    1.000
    H32      H        0.56080    0.06390    0.21550    1.000
    C57      C        0.53590    0.02890    0.29580    1.000
    H33      H        0.57160    0.00160    0.29170    1.000
    C58      C        0.43960    0.07250    0.35180    1.000
    H34      H        0.40820    0.07500    0.38590    1.000
    C59      C        0.47130    0.14870    0.20570    1.000
    C60      C        0.47910    0.10800    0.25550    1.000
    Co3      Co       0.99852    0.82116    0.57610    1.000
    C61      C        0.43100    0.96890    0.42150    1.000
    H35      H        0.38330    0.98170    0.40950    1.000
    C62      C        0.23200    0.86100    0.54360    1.000
    C63      C        0.57350    0.93140    0.45820    1.000
    C64      C        0.49580    0.98910    0.39480    1.000
    C65      C        0.16220    0.83460    0.57130    1.000
    C66      C        0.36410    0.90650    0.49420    1.000
    C67      C        0.43490    0.92970    0.46580    1.000
    C68      C        0.36390    0.88560    0.55130    1.000
    H36      H        0.40860    0.88680    0.57440    1.000
    C69      C        0.56700    0.96970    0.41340    1.000
    H37      H        0.61120    0.98300    0.39520    1.000
    C70      C        0.78340    0.93280    0.49800    1.000
    H38      H        0.82380    0.95690    0.49650    1.000
    C71      C        0.29970    0.86280    0.57560    1.000
    H39      H        0.30170    0.84840    0.61450    1.000
    C72      C        0.50770    0.91090    0.48330    1.000
    H40      H        0.51120    0.88410    0.51240    1.000
    C73      C        0.79620    0.88210    0.51790    1.000
    C74      C        0.65060    0.91370    0.47910    1.000
    C75      C        0.29620    0.90460    0.46160    1.000
    H41      H        0.29480    0.91770    0.42200    1.000
    C76      C        0.73580    0.84760    0.51850    1.000
    H42      H        0.74330    0.81310    0.53270    1.000
    C77      C        0.23040    0.88330    0.48700    1.000
    H43      H        0.18470    0.88430    0.46530    1.000
    C78      C        0.71190    0.94870    0.48040    1.000
    H44      H        0.70420    0.98400    0.46890    1.000
    C79      C        0.49060    0.03040    0.34710    1.000
    C80      C        0.66420    0.86240    0.49870    1.000
    H45      H        0.62460    0.83760    0.49850    1.000
    C81      C        0.87460    0.86100    0.53880    1.000
    O17      O        0.17060    0.80744    0.61706    1.000
    O18      O        0.09890    0.84257    0.54320    1.000
    O19      O        0.61890    0.17980    0.06530    1.000
    O20      O        0.56930    0.10920    0.02900    1.000
    O21      O        0.99860    0.86248    0.65526    1.000
    O22      O        0.06400    0.80931    0.71956    1.000
    C82      C        0.06550    0.88930    0.80740    1.000
    H46      H        0.09960    0.86110    0.81220    1.000
    C83      C        0.96990    0.93340    0.75000    1.000
    H47      H        0.93920    0.93610    0.71550    1.000
    C84      C        0.96410    0.97110    0.79580    1.000
    H48      H        0.92840    0.99840    0.79170    1.000
    C85      C        0.06040    0.92750    0.85180    1.000
    H49      H        0.09180    0.92500    0.88590    1.000
    C86      C        0.02870    0.85130    0.70570    1.000
    C87      C        0.02090    0.89200    0.75550    1.000
    Co4      Co       0.50148    0.17884    0.07610    1.000
    C88      C        0.06900    0.03110    0.92150    1.000
    H50      H        0.11670    0.01830    0.90950    1.000
    C89      C        0.26800    0.13900    0.04360    1.000
    C90      C        0.92650    0.06860    0.95820    1.000
    C91      C        0.00420    0.01090    0.89480    1.000
    C92      C        0.33780    0.16540    0.07130    1.000
    C93      C        0.13590    0.09350    0.99420    1.000
    C94      C        0.06510    0.07030    0.96580    1.000
    C95      C        0.13610    0.11440    0.05130    1.000
    H51      H        0.09140    0.11320    0.07440    1.000
    C96      C        0.93300    0.03030    0.91340    1.000
    H52      H        0.88880    0.01700    0.89520    1.000
    C97      C        0.71660    0.06720    0.99800    1.000
    H53      H        0.67620    0.04310    0.99650    1.000
    C98      C        0.20030    0.13720    0.07560    1.000
    H54      H        0.19830    0.15160    0.11450    1.000
    C99      C        0.99230    0.08910    0.98330    1.000
    H55      H        0.98880    0.11590    0.01240    1.000
    C100     C        0.70380    0.11790    0.01790    1.000
    C101     C        0.84940    0.08630    0.97910    1.000
    C102     C        0.20380    0.09540    0.96160    1.000
    H56      H        0.20520    0.08230    0.92200    1.000
    C103     C        0.76420    0.15240    0.01850    1.000
    H57      H        0.75670    0.18690    0.03270    1.000
    C104     C        0.26960    0.11670    0.98700    1.000
    H58      H        0.31530    0.11570    0.96530    1.000
    C105     C        0.78810    0.05130    0.98040    1.000
    H59      H        0.79580    0.01600    0.96890    1.000
    C106     C        0.00940    0.96960    0.84710    1.000
    C107     C        0.83580    0.13760    0.99870    1.000
    H60      H        0.87540    0.16240    0.99850    1.000
    C108     C        0.62540    0.13900    0.03880    1.000
    O23      O        0.32940    0.19256    0.11706    1.000
    O24      O        0.40110    0.15743    0.04320    1.000
    Co5      Co       0.11287    0.75000    0.66593    1.000
    O25      O        0.00960    0.75000    0.61560    1.000
    Co6      Co       0.38713    0.25000    0.16593    1.000
    O26      O        0.49040    0.25000    0.11560    1.000
    O27      O        0.11890    0.17980    0.43470    1.000
    O28      O        0.06930    0.10920    0.47100    1.000
    O29      O        0.49860    0.86248    0.84474    1.000
    O30      O        0.56400    0.80931    0.78044    1.000
    C109     C        0.56550    0.88930    0.69260    1.000
    H61      H        0.59960    0.86110    0.68780    1.000
    C110     C        0.46990    0.93340    0.75000    1.000
    H62      H        0.43920    0.93610    0.78450    1.000
    C111     C        0.46410    0.97110    0.70420    1.000
    H63      H        0.42840    0.99840    0.70830    1.000
    C112     C        0.56040    0.92750    0.64820    1.000
    H64      H        0.59180    0.92500    0.61410    1.000
    C113     C        0.52870    0.85130    0.79430    1.000
    C114     C        0.52090    0.89200    0.74450    1.000
    Co7      Co       0.00148    0.17884    0.42390    1.000
    C115     C        0.56900    0.03110    0.57850    1.000
    H65      H        0.61670    0.01830    0.59050    1.000
    C116     C        0.76800    0.13900    0.45640    1.000
    C117     C        0.42650    0.06860    0.54180    1.000
    C118     C        0.50420    0.01090    0.60520    1.000
    C119     C        0.83780    0.16540    0.42870    1.000
    C120     C        0.63590    0.09350    0.50580    1.000
    C121     C        0.56510    0.07030    0.53420    1.000
    C122     C        0.63610    0.11440    0.44870    1.000
    H66      H        0.59140    0.11320    0.42560    1.000
    C123     C        0.43300    0.03030    0.58660    1.000
    H67      H        0.38880    0.01700    0.60480    1.000
    C124     C        0.21660    0.06720    0.50200    1.000
    H68      H        0.17620    0.04310    0.50350    1.000
    C125     C        0.70030    0.13720    0.42440    1.000
    H69      H        0.69830    0.15160    0.38550    1.000
    C126     C        0.49230    0.08910    0.51670    1.000
    H70      H        0.48880    0.11590    0.48760    1.000
    C127     C        0.20380    0.11790    0.48210    1.000
    C128     C        0.34940    0.08630    0.52090    1.000
    C129     C        0.70380    0.09540    0.53840    1.000
    H71      H        0.70520    0.08230    0.57800    1.000
    C130     C        0.26420    0.15240    0.48150    1.000
    H72      H        0.25670    0.18690    0.46730    1.000
    C131     C        0.76960    0.11670    0.51300    1.000
    H73      H        0.81530    0.11570    0.53470    1.000
    C132     C        0.28810    0.05130    0.51960    1.000
    H74      H        0.29580    0.01600    0.53110    1.000
    C133     C        0.50940    0.96960    0.65290    1.000
    C134     C        0.33580    0.13760    0.50130    1.000
    H75      H        0.37540    0.16240    0.50150    1.000
    C135     C        0.12540    0.13900    0.46120    1.000
    O31      O        0.82940    0.19256    0.38294    1.000
    O32      O        0.90110    0.15743    0.45680    1.000
    O33      O        0.38110    0.82020    0.93470    1.000
    O34      O        0.43070    0.89080    0.97100    1.000
    O35      O        0.00140    0.13752    0.34474    1.000
    O36      O        0.93600    0.19069    0.28044    1.000
    C136     C        0.93450    0.11070    0.19260    1.000
    H76      H        0.90040    0.13890    0.18780    1.000
    C137     C        0.03010    0.06660    0.25000    1.000
    H77      H        0.06080    0.06390    0.28450    1.000
    C138     C        0.03590    0.02890    0.20420    1.000
    H78      H        0.07160    0.00160    0.20830    1.000
    C139     C        0.93960    0.07250    0.14820    1.000
    H79      H        0.90820    0.07500    0.11410    1.000
    C140     C        0.97130    0.14870    0.29430    1.000
    C141     C        0.97910    0.10800    0.24450    1.000
    Co8      Co       0.49852    0.82116    0.92390    1.000
    C142     C        0.93100    0.96890    0.07850    1.000
    H80      H        0.88330    0.98170    0.09050    1.000
    C143     C        0.73200    0.86100    0.95640    1.000
    C144     C        0.07350    0.93140    0.04180    1.000
    C145     C        0.99580    0.98910    0.10520    1.000
    C146     C        0.66220    0.83460    0.92870    1.000
    C147     C        0.86410    0.90650    0.00580    1.000
    C148     C        0.93490    0.92970    0.03420    1.000
    C149     C        0.86390    0.88560    0.94870    1.000
    H81      H        0.90860    0.88680    0.92560    1.000
    C150     C        0.06700    0.96970    0.08660    1.000
    H82      H        0.11120    0.98300    0.10480    1.000
    C151     C        0.28340    0.93280    0.00200    1.000
    H83      H        0.32380    0.95690    0.00350    1.000
    C152     C        0.79970    0.86280    0.92440    1.000
    H84      H        0.80170    0.84840    0.88550    1.000
    C153     C        0.00770    0.91090    0.01670    1.000
    H85      H        0.01120    0.88410    0.98760    1.000
    C154     C        0.29620    0.88210    0.98210    1.000
    C155     C        0.15060    0.91370    0.02090    1.000
    C156     C        0.79620    0.90460    0.03840    1.000
    H86      H        0.79480    0.91770    0.07800    1.000
    C157     C        0.23580    0.84760    0.98150    1.000
    H87      H        0.24330    0.81310    0.96730    1.000
    C158     C        0.73040    0.88330    0.01300    1.000
    H88      H        0.68470    0.88430    0.03470    1.000
    C159     C        0.21190    0.94870    0.01960    1.000
    H89      H        0.20420    0.98400    0.03110    1.000
    C160     C        0.99060    0.03040    0.15290    1.000
    C161     C        0.16420    0.86240    0.00130    1.000
    H90      H        0.12460    0.83760    0.00150    1.000
    C162     C        0.37460    0.86100    0.96120    1.000
    O37      O        0.67060    0.80744    0.88294    1.000
    O38      O        0.59890    0.84257    0.95680    1.000
    O39      O        0.11890    0.32020    0.43470    1.000
    O40      O        0.06930    0.39080    0.47100    1.000
    O41      O        0.49860    0.63752    0.84474    1.000
    O42      O        0.56400    0.69069    0.78044    1.000
    C163     C        0.56550    0.61070    0.69260    1.000
    H91      H        0.59960    0.63890    0.68780    1.000
    C164     C        0.46990    0.56660    0.75000    1.000
    H92      H        0.43920    0.56390    0.78450    1.000
    C165     C        0.46410    0.52890    0.70420    1.000
    H93      H        0.42840    0.50160    0.70830    1.000
    C166     C        0.56040    0.57250    0.64820    1.000
    H94      H        0.59180    0.57500    0.61410    1.000
    C167     C        0.52870    0.64870    0.79430    1.000
    C168     C        0.52090    0.60800    0.74450    1.000
    Co9      Co       0.00148    0.32116    0.42390    1.000
    C169     C        0.56900    0.46890    0.57850    1.000
    H95      H        0.61670    0.48170    0.59050    1.000
    C170     C        0.76800    0.36100    0.45640    1.000
    C171     C        0.42650    0.43140    0.54180    1.000
    C172     C        0.50420    0.48910    0.60520    1.000
    C173     C        0.83780    0.33460    0.42870    1.000
    C174     C        0.63590    0.40650    0.50580    1.000
    C175     C        0.56510    0.42970    0.53420    1.000
    C176     C        0.63610    0.38560    0.44870    1.000
    H96      H        0.59140    0.38680    0.42560    1.000
    C177     C        0.43300    0.46970    0.58660    1.000
    H97      H        0.38880    0.48300    0.60480    1.000
    C178     C        0.21660    0.43280    0.50200    1.000
    H98      H        0.17620    0.45690    0.50350    1.000
    C179     C        0.70030    0.36280    0.42440    1.000
    H99      H        0.69830    0.34840    0.38550    1.000
    C180     C        0.49230    0.41090    0.51670    1.000
    H100     H        0.48880    0.38410    0.48760    1.000
    C181     C        0.20380    0.38210    0.48210    1.000
    C182     C        0.34940    0.41370    0.52090    1.000
    C183     C        0.70380    0.40460    0.53840    1.000
    H101     H        0.70520    0.41770    0.57800    1.000
    C184     C        0.26420    0.34760    0.48150    1.000
    H102     H        0.25670    0.31310    0.46730    1.000
    C185     C        0.76960    0.38330    0.51300    1.000
    H103     H        0.81530    0.38430    0.53470    1.000
    C186     C        0.28810    0.44870    0.51960    1.000
    H104     H        0.29580    0.48400    0.53110    1.000
    C187     C        0.50940    0.53040    0.65290    1.000
    C188     C        0.33580    0.36240    0.50130    1.000
    H105     H        0.37540    0.33760    0.50150    1.000
    C189     C        0.12540    0.36100    0.46120    1.000
    O43      O        0.82940    0.30744    0.38294    1.000
    O44      O        0.90110    0.34257    0.45680    1.000
    O45      O        0.38110    0.67980    0.93470    1.000
    O46      O        0.43070    0.60920    0.97100    1.000
    O47      O        0.00140    0.36248    0.34474    1.000
    O48      O        0.93600    0.30931    0.28044    1.000
    C190     C        0.93450    0.38930    0.19260    1.000
    H106     H        0.90040    0.36110    0.18780    1.000
    C191     C        0.03010    0.43340    0.25000    1.000
    H107     H        0.06080    0.43610    0.28450    1.000
    C192     C        0.03590    0.47110    0.20420    1.000
    H108     H        0.07160    0.49840    0.20830    1.000
    C193     C        0.93960    0.42750    0.14820    1.000
    H109     H        0.90820    0.42500    0.11410    1.000
    C194     C        0.97130    0.35130    0.29430    1.000
    C195     C        0.97910    0.39200    0.24450    1.000
    Co10     Co       0.49852    0.67884    0.92390    1.000
    C196     C        0.93100    0.53110    0.07850    1.000
    H110     H        0.88330    0.51830    0.09050    1.000
    C197     C        0.73200    0.63900    0.95640    1.000
    C198     C        0.07350    0.56860    0.04180    1.000
    C199     C        0.99580    0.51090    0.10520    1.000
    C200     C        0.66220    0.66540    0.92870    1.000
    C201     C        0.86410    0.59350    0.00580    1.000
    C202     C        0.93490    0.57030    0.03420    1.000
    C203     C        0.86390    0.61440    0.94870    1.000
    H111     H        0.90860    0.61320    0.92560    1.000
    C204     C        0.06700    0.53030    0.08660    1.000
    H112     H        0.11120    0.51700    0.10480    1.000
    C205     C        0.28340    0.56720    0.00200    1.000
    H113     H        0.32380    0.54310    0.00350    1.000
    C206     C        0.79970    0.63720    0.92440    1.000
    H114     H        0.80170    0.65160    0.88550    1.000
    C207     C        0.00770    0.58910    0.01670    1.000
    H115     H        0.01120    0.61590    0.98760    1.000
    C208     C        0.29620    0.61790    0.98210    1.000
    C209     C        0.15060    0.58630    0.02090    1.000
    C210     C        0.79620    0.59540    0.03840    1.000
    H116     H        0.79480    0.58230    0.07800    1.000
    C211     C        0.23580    0.65240    0.98150    1.000
    H117     H        0.24330    0.68690    0.96730    1.000
    C212     C        0.73040    0.61670    0.01300    1.000
    H118     H        0.68470    0.61570    0.03470    1.000
    C213     C        0.21190    0.55130    0.01960    1.000
    H119     H        0.20420    0.51600    0.03110    1.000
    C214     C        0.99060    0.46960    0.15290    1.000
    C215     C        0.16420    0.63760    0.00130    1.000
    H120     H        0.12460    0.66240    0.00150    1.000
    C216     C        0.37460    0.63900    0.96120    1.000
    O49      O        0.67060    0.69256    0.88294    1.000
    O50      O        0.59890    0.65743    0.95680    1.000
    Co11     Co       0.88713    0.25000    0.33407    1.000
    O51      O        0.99040    0.25000    0.38440    1.000
    Co12     Co       0.61287    0.75000    0.83407    1.000
    O52      O        0.50960    0.75000    0.88440    1.000
