# CIF file generated by openbabel 3.1.0, see https://openbabel.org
data_I
_chemical_name_common 'image0'
_cell_length_a 15.8734
_cell_length_b 13.4525
_cell_length_c 6.6309
_cell_angle_alpha 90
_cell_angle_beta 97.862
_cell_angle_gamma 90
_space_group_name_H-M_alt 'P 1'
_space_group_name_Hall 'P 1'
loop_
    _symmetry_equiv_pos_as_xyz
    x,y,z
loop_
    _atom_site_label
    _atom_site_type_symbol
    _atom_site_fract_x
    _atom_site_fract_y
    _atom_site_fract_z
    _atom_site_occupancy
    Tb1      Tb       0.25118    0.93920    0.46505    1.000
    O1       O        0.31965    0.79670    0.36550    1.000
    O2       O        0.31887    0.63730    0.28400    1.000
    O3       O        0.71921    0.87650    0.55530    1.000
    O4       O        0.61040    0.97170    0.44150    1.000
    O5       O        0.15270    0.87930    0.15370    1.000
    O6       O        0.11453    0.01140    0.30730    1.000
    N1       N        0.57980    0.61900    0.41630    1.000
    C1       C        0.35620    0.71700    0.33760    1.000
    C2       C        0.45210    0.71640    0.37620    1.000
    C3       C        0.49540    0.62590    0.37950    1.000
    H1       H        0.46390    0.56790    0.35480    1.000
    C4       C        0.62390    0.70320    0.45100    1.000
    H2       H        0.68270    0.69880    0.48020    1.000
    C5       C        0.58710    0.79660    0.44600    1.000
    C6       C        0.49900    0.80310    0.40820    1.000
    H3       H        0.47200    0.86460    0.40430    1.000
    C7       C        0.64240    0.88800    0.48240    1.000
    C8       C        0.10070    0.94860    0.16720    1.000
    C9       C        0.02190    0.95190    0.01060    1.000
    H4       H        0.03790    0.93360    0.87940    1.000
    H5       H        0.98230    0.90210    0.04610    1.000
    Tb2      Tb       0.74882    0.43920    0.03495    1.000
    O7       O        0.68035    0.29670    0.13450    1.000
    O8       O        0.68113    0.13730    0.21600    1.000
    O9       O        0.28079    0.37650    0.94470    1.000
    O10      O        0.38960    0.47170    0.05850    1.000
    O11      O        0.84730    0.37930    0.34630    1.000
    O12      O        0.88547    0.51140    0.19270    1.000
    N2       N        0.42020    0.11900    0.08370    1.000
    C10      C        0.64380    0.21700    0.16240    1.000
    C11      C        0.54790    0.21640    0.12380    1.000
    C12      C        0.50460    0.12590    0.12050    1.000
    H6       H        0.53610    0.06790    0.14520    1.000
    C13      C        0.37610    0.20320    0.04900    1.000
    H7       H        0.31730    0.19880    0.01980    1.000
    C14      C        0.41290    0.29660    0.05400    1.000
    C15      C        0.50100    0.30310    0.09180    1.000
    H8       H        0.52800    0.36460    0.09570    1.000
    C16      C        0.35760    0.38800    0.01760    1.000
    C17      C        0.89930    0.44860    0.33280    1.000
    C18      C        0.97810    0.45190    0.48940    1.000
    H9       H        0.96210    0.43360    0.62060    1.000
    H10      H        0.01770    0.40210    0.45390    1.000
    Tb3      Tb       0.74882    0.06080    0.53495    1.000
    O13      O        0.68035    0.20330    0.63450    1.000
    O14      O        0.68113    0.36270    0.71600    1.000
    O15      O        0.28079    0.12350    0.44470    1.000
    O16      O        0.38960    0.02830    0.55850    1.000
    O17      O        0.84730    0.12070    0.84630    1.000
    O18      O        0.88547    0.98860    0.69270    1.000
    N3       N        0.42020    0.38100    0.58370    1.000
    C19      C        0.64380    0.28300    0.66240    1.000
    C20      C        0.54790    0.28360    0.62380    1.000
    C21      C        0.50460    0.37410    0.62050    1.000
    H11      H        0.53610    0.43210    0.64520    1.000
    C22      C        0.37610    0.29680    0.54900    1.000
    H12      H        0.31730    0.30120    0.51980    1.000
    C23      C        0.41290    0.20340    0.55400    1.000
    C24      C        0.50100    0.19690    0.59180    1.000
    H13      H        0.52800    0.13540    0.59570    1.000
    C25      C        0.35760    0.11200    0.51760    1.000
    C26      C        0.89930    0.05140    0.83280    1.000
    C27      C        0.97810    0.04810    0.98940    1.000
    H14      H        0.96210    0.06640    0.12060    1.000
    H15      H        0.01770    0.09790    0.95390    1.000
    Tb4      Tb       0.25118    0.56080    0.96505    1.000
    O19      O        0.31965    0.70330    0.86550    1.000
    O20      O        0.31887    0.86270    0.78400    1.000
    O21      O        0.71921    0.62350    0.05530    1.000
    O22      O        0.61040    0.52830    0.94150    1.000
    O23      O        0.15270    0.62070    0.65370    1.000
    O24      O        0.11453    0.48860    0.80730    1.000
    N4       N        0.57980    0.88100    0.91630    1.000
    C28      C        0.35620    0.78300    0.83760    1.000
    C29      C        0.45210    0.78360    0.87620    1.000
    C30      C        0.49540    0.87410    0.87950    1.000
    H16      H        0.46390    0.93210    0.85480    1.000
    C31      C        0.62390    0.79680    0.95100    1.000
    H17      H        0.68270    0.80120    0.98020    1.000
    C32      C        0.58710    0.70340    0.94600    1.000
    C33      C        0.49900    0.69690    0.90820    1.000
    H18      H        0.47200    0.63540    0.90430    1.000
    C34      C        0.64240    0.61200    0.98240    1.000
    C35      C        0.10070    0.55140    0.66720    1.000
    C36      C        0.02190    0.54810    0.51060    1.000
    H19      H        0.03790    0.56640    0.37940    1.000
    H20      H        0.98230    0.59790    0.54610    1.000
