# CIF file generated by openbabel 3.1.0, see https://openbabel.org
data_I
_chemical_name_common 'image0'
_cell_length_a 16.4011
_cell_length_b 7.1786
_cell_length_c 14.2586
_cell_angle_alpha 90
_cell_angle_beta 90
_cell_angle_gamma 90
_space_group_name_H-M_alt 'P 1'
_space_group_name_Hall 'P 1'
loop_
    _symmetry_equiv_pos_as_xyz
    x,y,z
loop_
    _atom_site_label
    _atom_site_type_symbol
    _atom_site_fract_x
    _atom_site_fract_y
    _atom_site_fract_z
    _atom_site_occupancy
    O1       O        0.59187    0.56111    0.73336    1.000
    O2       O        0.54019    0.80989    0.65830    1.000
    O3       O        0.56026    0.63816    0.46344    1.000
    O4       O        0.58410    0.94104    0.43363    1.000
    C1       C        0.67589    0.71908    0.62452    1.000
    C2       C        0.67626    0.77558    0.53074    1.000
    C3       C        0.59580    0.69471    0.67606    1.000
    C4       C        0.59980    0.78639    0.47228    1.000
    O5       O        0.09187    0.06111    0.23336    1.000
    O6       O        0.04019    0.30989    0.15830    1.000
    O7       O        0.06026    0.13816    0.96344    1.000
    O8       O        0.08410    0.44104    0.93363    1.000
    C5       C        0.17589    0.21908    0.12452    1.000
    C6       C        0.17626    0.27558    0.03074    1.000
    C7       C        0.09580    0.19471    0.17606    1.000
    C8       C        0.09980    0.28639    0.97228    1.000
    O9       O        0.40813    0.43889    0.73336    1.000
    O10      O        0.45981    0.19011    0.65830    1.000
    O11      O        0.43974    0.36184    0.46344    1.000
    O12      O        0.41590    0.05896    0.43363    1.000
    C9       C        0.32411    0.28092    0.62452    1.000
    C10      C        0.32374    0.22442    0.53074    1.000
    C11      C        0.40420    0.30529    0.67606    1.000
    C12      C        0.40020    0.21361    0.47228    1.000
    O13      O        0.90813    0.93889    0.23336    1.000
    O14      O        0.95981    0.69011    0.15830    1.000
    O15      O        0.93974    0.86184    0.96344    1.000
    O16      O        0.91590    0.55896    0.93363    1.000
    C13      C        0.82411    0.78092    0.12452    1.000
    C14      C        0.82374    0.72442    0.03074    1.000
    C15      C        0.90420    0.80529    0.17606    1.000
    C16      C        0.90020    0.71361    0.97228    1.000
    O17      O        0.09187    0.43889    0.73336    1.000
    O18      O        0.04019    0.19011    0.65830    1.000
    O19      O        0.06026    0.36184    0.46344    1.000
    O20      O        0.08410    0.05896    0.43363    1.000
    C17      C        0.17589    0.28092    0.62452    1.000
    C18      C        0.17626    0.22442    0.53074    1.000
    C19      C        0.09580    0.30529    0.67606    1.000
    C20      C        0.09980    0.21361    0.47228    1.000
    O21      O        0.59187    0.93889    0.23336    1.000
    O22      O        0.54019    0.69011    0.15830    1.000
    O23      O        0.56026    0.86184    0.96344    1.000
    O24      O        0.58410    0.55896    0.93363    1.000
    C21      C        0.67589    0.78092    0.12452    1.000
    C22      C        0.67626    0.72442    0.03074    1.000
    C23      C        0.59580    0.80529    0.17606    1.000
    C24      C        0.59980    0.71361    0.97228    1.000
    O25      O        0.90813    0.56111    0.73336    1.000
    O26      O        0.95981    0.80989    0.65830    1.000
    O27      O        0.93974    0.63816    0.46344    1.000
    O28      O        0.91590    0.94104    0.43363    1.000
    C25      C        0.82411    0.71908    0.62452    1.000
    C26      C        0.82374    0.77558    0.53074    1.000
    C27      C        0.90420    0.69471    0.67606    1.000
    C28      C        0.90020    0.78639    0.47228    1.000
    O29      O        0.40813    0.06111    0.23336    1.000
    O30      O        0.45981    0.30989    0.15830    1.000
    O31      O        0.43974    0.13816    0.96344    1.000
    O32      O        0.41590    0.44104    0.93363    1.000
    C29      C        0.32411    0.21908    0.12452    1.000
    C30      C        0.32374    0.27558    0.03074    1.000
    C31      C        0.40420    0.19471    0.17606    1.000
    C32      C        0.40020    0.28639    0.97228    1.000
    Co1      Co       0.50000    0.50000    0.82749    1.000
    Co2      Co       0.00000    0.00000    0.32749    1.000
    Co3      Co       0.00000    0.50000    0.82749    1.000
    Co4      Co       0.50000    0.00000    0.32749    1.000
    C33      C        0.75000    0.69080    0.67061    1.000
    H1       H        0.75000    0.65170    0.73430    1.000
    C34      C        0.75000    0.80560    0.48435    1.000
    H2       H        0.75000    0.84650    0.42100    1.000
    C35      C        0.25000    0.19080    0.17061    1.000
    H3       H        0.25000    0.15170    0.23430    1.000
    C36      C        0.25000    0.30560    0.98435    1.000
    H4       H        0.25000    0.34650    0.92100    1.000
    C37      C        0.25000    0.30920    0.67061    1.000
    H5       H        0.25000    0.34830    0.73430    1.000
    C38      C        0.25000    0.19440    0.48435    1.000
    H6       H        0.25000    0.15350    0.42100    1.000
    C39      C        0.75000    0.80920    0.17061    1.000
    H7       H        0.75000    0.84830    0.23430    1.000
    C40      C        0.75000    0.69440    0.98435    1.000
    H8       H        0.75000    0.65350    0.92100    1.000
