# CIF file generated by openbabel 3.1.0, see https://openbabel.org
data_I
_chemical_name_common 'image0'
_cell_length_a 34.0465
_cell_length_b 14.9235
_cell_length_c 30.8377
_cell_angle_alpha 90
_cell_angle_beta 100.629
_cell_angle_gamma 90
_space_group_name_H-M_alt 'P 1'
_space_group_name_Hall 'P 1'
loop_
    _symmetry_equiv_pos_as_xyz
    x,y,z
loop_
    _atom_site_label
    _atom_site_type_symbol
    _atom_site_fract_x
    _atom_site_fract_y
    _atom_site_fract_z
    _atom_site_occupancy
    I1       I        0.61844    0.32330    0.20124    1.000
    Zn1      Zn       0.66895    0.35080    0.27250    1.000
    I2       I        0.73171    0.26100    0.29551    1.000
    N1       N        0.63880    0.33720    0.32480    1.000
    N2       N        0.68390    0.48790    0.27730    1.000
    C1       C        0.66040    0.54310    0.25090    1.000
    C2       C        0.71410    0.52380    0.30540    1.000
    C3       C        0.66580    0.63330    0.25060    1.000
    H1       H        0.63840    0.51840    0.23100    1.000
    C4       C        0.72240    0.61380    0.30660    1.000
    H2       H        0.73060    0.48540    0.32550    1.000
    C5       C        0.69740    0.67040    0.27970    1.000
    H3       H        0.64820    0.67020    0.23070    1.000
    H4       H        0.74520    0.63650    0.32600    1.000
    C6       C        0.70430    0.76970    0.27960    1.000
    N3       N        0.67937    0.81480    0.24900    1.000
    N4       N        0.73410    0.80460    0.30820    1.000
    C7       C        0.68780    0.90060    0.24630    1.000
    C8       C        0.73950    0.89320    0.30380    1.000
    C9       C        0.66210    0.95480    0.21160    1.000
    N5       N        0.71766    0.94430    0.27250    1.000
    C10      C        0.77080    0.94010    0.33500    1.000
    C11      C        0.62840    0.91620    0.18770    1.000
    C12      C        0.67150    0.04150    0.20270    1.000
    C13      C        0.77480    0.03070    0.33270    1.000
    C14      C        0.79710    0.89490    0.36740    1.000
    C15      C        0.60420    0.96620    0.15580    1.000
    H5       H        0.62180    0.85590    0.19310    1.000
    C16      C        0.64620    0.08660    0.16910    1.000
    H6       H        0.69450    0.06990    0.21900    1.000
    H7       H        0.75790    0.06370    0.31030    1.000
    C17      C        0.80310    0.07410    0.36270    1.000
    C18      C        0.82430    0.94290    0.39630    1.000
    H8       H        0.79620    0.83140    0.36940    1.000
    N6       N        0.61330    0.05020    0.14610    1.000
    H9       H        0.58030    0.94000    0.14020    1.000
    H10      H        0.65280    0.14620    0.16230    1.000
    N7       N        0.82770    0.03050    0.39460    1.000
    H11      H        0.80530    0.13740    0.36080    1.000
    H12      H        0.84160    0.91140    0.41890    1.000
    Zn2      Zn       0.57189    0.12000    0.10100    1.000
    Zn3      Zn       0.86669    0.10780    0.43670    1.000
    I3       I        0.61032    0.23711    0.06434    1.000
    N8       N        0.55840    0.01800    0.05470    1.000
    I4       I        0.51207    0.14930    0.13747    1.000
    N9       N        0.91650    0.01970    0.44760    1.000
    I5       I        0.88279    0.24910    0.39779    1.000
    I6       I        0.84414    0.10890    0.50962    1.000
    C19      C        0.93530    0.01490    0.41460    1.000
    C20      C        0.92880    0.96920    0.48350    1.000
    C21      C        0.96740    0.95950    0.41450    1.000
    H13      H        0.92650    0.05140    0.38940    1.000
    C22      C        0.96160    0.91150    0.48520    1.000
    H14      H        0.91530    0.97240    0.50780    1.000
    H15      H        0.98030    0.95730    0.38970    1.000
    C23      C        0.98090    0.90680    0.45110    1.000
    H16      H        0.97030    0.87570    0.51070    1.000
    C24      C        0.01350    0.84320    0.45120    1.000
    N10      N        0.03680    0.85920    0.42180    1.000
    N11      N        0.01678    0.77300    0.47860    1.000
    C25      C        0.06520    0.79740    0.42070    1.000
    C26      C        0.04560    0.71670    0.47420    1.000
    N12      N        0.07110    0.72570    0.44630    1.000
    C27      C        0.09120    0.81030    0.38730    1.000
    C28      C        0.04950    0.63400    0.50240    1.000
    C29      C        0.12470    0.75910    0.38800    1.000
    C30      C        0.08180    0.87690    0.35530    1.000
    C31      C        0.08040    0.57590    0.50130    1.000
    C32      C        0.02240    0.61310    0.52830    1.000
    C33      C        0.14730    0.77420    0.35710    1.000
    H17      H        0.13190    0.71390    0.40980    1.000
    C34      C        0.10700    0.88620    0.32520    1.000
    H18      H        0.05910    0.91430    0.35430    1.000
    H19      H        0.09890    0.58710    0.48230    1.000
    C35      C        0.08450    0.50010    0.52830    1.000
    C36      C        0.02780    0.53580    0.55400    1.000
    H20      H        0.00000    0.65090    0.52880    1.000
    H21      H        0.17060    0.73860    0.35800    1.000
    H22      H        0.10080    0.93130    0.30320    1.000
    H23      H        0.10630    0.46050    0.52800    1.000
    H24      H        0.00860    0.52150    0.57180    1.000
    Zn4      Zn       0.68040    0.35150    0.28610    1.000
    I7       I        0.63750    0.30920    0.21130    1.000
    I8       I        0.74600    0.27860    0.31680    1.000
    Zn5      Zn       0.36700    0.59480    0.44650    1.000
    I9       I        0.33560    0.58140    0.51590    1.000
    I10      I        0.38358    0.74210    0.41230    1.000
    Zn6      Zn       0.07710    0.62350    0.09700    1.000
    I11      I        0.01940    0.66140    0.13510    1.000
    I12      I        0.11570    0.73610    0.06500    1.000
    I13      I        0.11844    0.82330    0.20124    1.000
    Zn7      Zn       0.16895    0.85080    0.27250    1.000
    I14      I        0.23171    0.76100    0.29551    1.000
    N13      N        0.13880    0.83720    0.32480    1.000
    N14      N        0.18390    0.98790    0.27730    1.000
    C37      C        0.16040    0.04310    0.25090    1.000
    C38      C        0.21410    0.02380    0.30540    1.000
    C39      C        0.16580    0.13330    0.25060    1.000
    H25      H        0.13840    0.01840    0.23100    1.000
    C40      C        0.22240    0.11380    0.30660    1.000
    H26      H        0.23060    0.98540    0.32550    1.000
    C41      C        0.19740    0.17040    0.27970    1.000
    H27      H        0.14820    0.17020    0.23070    1.000
    H28      H        0.24520    0.13650    0.32600    1.000
    C42      C        0.20430    0.26970    0.27960    1.000
    N15      N        0.17937    0.31480    0.24900    1.000
    N16      N        0.23410    0.30460    0.30820    1.000
    C43      C        0.18780    0.40060    0.24630    1.000
    C44      C        0.23950    0.39320    0.30380    1.000
    C45      C        0.16210    0.45480    0.21160    1.000
    N17      N        0.21766    0.44430    0.27250    1.000
    C46      C        0.27080    0.44010    0.33500    1.000
    C47      C        0.12840    0.41620    0.18770    1.000
    C48      C        0.17150    0.54150    0.20270    1.000
    C49      C        0.27480    0.53070    0.33270    1.000
    C50      C        0.29710    0.39490    0.36740    1.000
    C51      C        0.10420    0.46620    0.15580    1.000
    H29      H        0.12180    0.35590    0.19310    1.000
    C52      C        0.14620    0.58660    0.16910    1.000
    H30      H        0.19450    0.56990    0.21900    1.000
    H31      H        0.25790    0.56370    0.31030    1.000
    C53      C        0.30310    0.57410    0.36270    1.000
    C54      C        0.32430    0.44290    0.39630    1.000
    H32      H        0.29620    0.33140    0.36940    1.000
    N18      N        0.11330    0.55020    0.14610    1.000
    H33      H        0.08030    0.44000    0.14020    1.000
    H34      H        0.15280    0.64620    0.16230    1.000
    N19      N        0.32770    0.53050    0.39460    1.000
    H35      H        0.30530    0.63740    0.36080    1.000
    H36      H        0.34160    0.41140    0.41890    1.000
    Zn8      Zn       0.07189    0.62000    0.10100    1.000
    Zn9      Zn       0.36669    0.60780    0.43670    1.000
    I15      I        0.11032    0.73711    0.06434    1.000
    N20      N        0.05840    0.51800    0.05470    1.000
    I16      I        0.01207    0.64930    0.13747    1.000
    N21      N        0.41650    0.51970    0.44760    1.000
    I17      I        0.38279    0.74910    0.39779    1.000
    I18      I        0.34414    0.60890    0.50962    1.000
    C55      C        0.43530    0.51490    0.41460    1.000
    C56      C        0.42880    0.46920    0.48350    1.000
    C57      C        0.46740    0.45950    0.41450    1.000
    H37      H        0.42650    0.55140    0.38940    1.000
    C58      C        0.46160    0.41150    0.48520    1.000
    H38      H        0.41530    0.47240    0.50780    1.000
    H39      H        0.48030    0.45730    0.38970    1.000
    C59      C        0.48090    0.40680    0.45110    1.000
    H40      H        0.47030    0.37570    0.51070    1.000
    C60      C        0.51350    0.34320    0.45120    1.000
    N22      N        0.53680    0.35920    0.42180    1.000
    N23      N        0.51678    0.27300    0.47860    1.000
    C61      C        0.56520    0.29740    0.42070    1.000
    C62      C        0.54560    0.21670    0.47420    1.000
    N24      N        0.57110    0.22570    0.44630    1.000
    C63      C        0.59120    0.31030    0.38730    1.000
    C64      C        0.54950    0.13400    0.50240    1.000
    C65      C        0.62470    0.25910    0.38800    1.000
    C66      C        0.58180    0.37690    0.35530    1.000
    C67      C        0.58040    0.07590    0.50130    1.000
    C68      C        0.52240    0.11310    0.52830    1.000
    C69      C        0.64730    0.27420    0.35710    1.000
    H41      H        0.63190    0.21390    0.40980    1.000
    C70      C        0.60700    0.38620    0.32520    1.000
    H42      H        0.55910    0.41430    0.35430    1.000
    H43      H        0.59890    0.08710    0.48230    1.000
    C71      C        0.58450    0.00010    0.52830    1.000
    C72      C        0.52780    0.03580    0.55400    1.000
    H44      H        0.50000    0.15090    0.52880    1.000
    H45      H        0.67060    0.23860    0.35800    1.000
    H46      H        0.60080    0.43130    0.30320    1.000
    H47      H        0.60630    0.96050    0.52800    1.000
    H48      H        0.50860    0.02150    0.57180    1.000
    Zn10     Zn       0.18040    0.85150    0.28610    1.000
    I19      I        0.13750    0.80920    0.21130    1.000
    I20      I        0.24600    0.77860    0.31680    1.000
    Zn11     Zn       0.86700    0.09480    0.44650    1.000
    I21      I        0.83560    0.08140    0.51590    1.000
    I22      I        0.88358    0.24210    0.41230    1.000
    Zn12     Zn       0.57710    0.12350    0.09700    1.000
    I23      I        0.51940    0.16140    0.13510    1.000
    I24      I        0.61570    0.23610    0.06500    1.000
    I25      I        0.61844    0.67670    0.70124    1.000
    Zn13     Zn       0.66895    0.64920    0.77250    1.000
    I26      I        0.73171    0.73900    0.79551    1.000
    N25      N        0.63880    0.66280    0.82480    1.000
    N26      N        0.68390    0.51210    0.77730    1.000
    C73      C        0.66040    0.45690    0.75090    1.000
    C74      C        0.71410    0.47620    0.80540    1.000
    C75      C        0.66580    0.36670    0.75060    1.000
    H49      H        0.63840    0.48160    0.73100    1.000
    C76      C        0.72240    0.38620    0.80660    1.000
    H50      H        0.73060    0.51460    0.82550    1.000
    C77      C        0.69740    0.32960    0.77970    1.000
    H51      H        0.64820    0.32980    0.73070    1.000
    H52      H        0.74520    0.36350    0.82600    1.000
    C78      C        0.70430    0.23030    0.77960    1.000
    N27      N        0.67937    0.18520    0.74900    1.000
    N28      N        0.73410    0.19540    0.80820    1.000
    C79      C        0.68780    0.09940    0.74630    1.000
    C80      C        0.73950    0.10680    0.80380    1.000
    C81      C        0.66210    0.04520    0.71160    1.000
    N29      N        0.71766    0.05570    0.77250    1.000
    C82      C        0.77080    0.05990    0.83500    1.000
    C83      C        0.62840    0.08380    0.68770    1.000
    C84      C        0.67150    0.95850    0.70270    1.000
    C85      C        0.77480    0.96930    0.83270    1.000
    C86      C        0.79710    0.10510    0.86740    1.000
    C87      C        0.60420    0.03380    0.65580    1.000
    H53      H        0.62180    0.14410    0.69310    1.000
    C88      C        0.64620    0.91340    0.66910    1.000
    H54      H        0.69450    0.93010    0.71900    1.000
    H55      H        0.75790    0.93630    0.81030    1.000
    C89      C        0.80310    0.92590    0.86270    1.000
    C90      C        0.82430    0.05710    0.89630    1.000
    H56      H        0.79620    0.16860    0.86940    1.000
    N30      N        0.61330    0.94980    0.64610    1.000
    H57      H        0.58030    0.06000    0.64020    1.000
    H58      H        0.65280    0.85380    0.66230    1.000
    N31      N        0.82770    0.96950    0.89460    1.000
    H59      H        0.80530    0.86260    0.86080    1.000
    H60      H        0.84160    0.08860    0.91890    1.000
    Zn14     Zn       0.57189    0.88000    0.60100    1.000
    Zn15     Zn       0.86669    0.89220    0.93670    1.000
    I27      I        0.61032    0.76289    0.56434    1.000
    N32      N        0.55840    0.98200    0.55470    1.000
    I28      I        0.51207    0.85070    0.63747    1.000
    N33      N        0.91650    0.98030    0.94760    1.000
    I29      I        0.88279    0.75090    0.89779    1.000
    I30      I        0.84414    0.89110    0.00962    1.000
    C91      C        0.93530    0.98510    0.91460    1.000
    C92      C        0.92880    0.03080    0.98350    1.000
    C93      C        0.96740    0.04050    0.91450    1.000
    H61      H        0.92650    0.94860    0.88940    1.000
    C94      C        0.96160    0.08850    0.98520    1.000
    H62      H        0.91530    0.02760    0.00780    1.000
    H63      H        0.98030    0.04270    0.88970    1.000
    C95      C        0.98090    0.09320    0.95110    1.000
    H64      H        0.97030    0.12430    0.01070    1.000
    C96      C        0.01350    0.15680    0.95120    1.000
    N34      N        0.03680    0.14080    0.92180    1.000
    N35      N        0.01678    0.22700    0.97860    1.000
    C97      C        0.06520    0.20260    0.92070    1.000
    C98      C        0.04560    0.28330    0.97420    1.000
    N36      N        0.07110    0.27430    0.94630    1.000
    C99      C        0.09120    0.18970    0.88730    1.000
    C100     C        0.04950    0.36600    0.00240    1.000
    C101     C        0.12470    0.24090    0.88800    1.000
    C102     C        0.08180    0.12310    0.85530    1.000
    C103     C        0.08040    0.42410    0.00130    1.000
    C104     C        0.02240    0.38690    0.02830    1.000
    C105     C        0.14730    0.22580    0.85710    1.000
    H65      H        0.13190    0.28610    0.90980    1.000
    C106     C        0.10700    0.11380    0.82520    1.000
    H66      H        0.05910    0.08570    0.85430    1.000
    H67      H        0.09890    0.41290    0.98230    1.000
    C107     C        0.08450    0.49990    0.02830    1.000
    C108     C        0.02780    0.46420    0.05400    1.000
    H68      H        0.00000    0.34910    0.02880    1.000
    H69      H        0.17060    0.26140    0.85800    1.000
    H70      H        0.10080    0.06870    0.80320    1.000
    H71      H        0.10630    0.53950    0.02800    1.000
    H72      H        0.00860    0.47850    0.07180    1.000
    Zn16     Zn       0.68040    0.64850    0.78610    1.000
    I31      I        0.63750    0.69080    0.71130    1.000
    I32      I        0.74600    0.72140    0.81680    1.000
    Zn17     Zn       0.36700    0.40520    0.94650    1.000
    I33      I        0.33560    0.41860    0.01590    1.000
    I34      I        0.38358    0.25790    0.91230    1.000
    Zn18     Zn       0.07710    0.37650    0.59700    1.000
    I35      I        0.01940    0.33860    0.63510    1.000
    I36      I        0.11570    0.26390    0.56500    1.000
    I37      I        0.11844    0.17670    0.70124    1.000
    Zn19     Zn       0.16895    0.14920    0.77250    1.000
    I38      I        0.23171    0.23900    0.79551    1.000
    N37      N        0.13880    0.16280    0.82480    1.000
    N38      N        0.18390    0.01210    0.77730    1.000
    C109     C        0.16040    0.95690    0.75090    1.000
    C110     C        0.21410    0.97620    0.80540    1.000
    C111     C        0.16580    0.86670    0.75060    1.000
    H73      H        0.13840    0.98160    0.73100    1.000
    C112     C        0.22240    0.88620    0.80660    1.000
    H74      H        0.23060    0.01460    0.82550    1.000
    C113     C        0.19740    0.82960    0.77970    1.000
    H75      H        0.14820    0.82980    0.73070    1.000
    H76      H        0.24520    0.86350    0.82600    1.000
    C114     C        0.20430    0.73030    0.77960    1.000
    N39      N        0.17937    0.68520    0.74900    1.000
    N40      N        0.23410    0.69540    0.80820    1.000
    C115     C        0.18780    0.59940    0.74630    1.000
    C116     C        0.23950    0.60680    0.80380    1.000
    C117     C        0.16210    0.54520    0.71160    1.000
    N41      N        0.21766    0.55570    0.77250    1.000
    C118     C        0.27080    0.55990    0.83500    1.000
    C119     C        0.12840    0.58380    0.68770    1.000
    C120     C        0.17150    0.45850    0.70270    1.000
    C121     C        0.27480    0.46930    0.83270    1.000
    C122     C        0.29710    0.60510    0.86740    1.000
    C123     C        0.10420    0.53380    0.65580    1.000
    H77      H        0.12180    0.64410    0.69310    1.000
    C124     C        0.14620    0.41340    0.66910    1.000
    H78      H        0.19450    0.43010    0.71900    1.000
    H79      H        0.25790    0.43630    0.81030    1.000
    C125     C        0.30310    0.42590    0.86270    1.000
    C126     C        0.32430    0.55710    0.89630    1.000
    H80      H        0.29620    0.66860    0.86940    1.000
    N42      N        0.11330    0.44980    0.64610    1.000
    H81      H        0.08030    0.56000    0.64020    1.000
    H82      H        0.15280    0.35380    0.66230    1.000
    N43      N        0.32770    0.46950    0.89460    1.000
    H83      H        0.30530    0.36260    0.86080    1.000
    H84      H        0.34160    0.58860    0.91890    1.000
    Zn20     Zn       0.07189    0.38000    0.60100    1.000
    Zn21     Zn       0.36669    0.39220    0.93670    1.000
    I39      I        0.11032    0.26289    0.56434    1.000
    N44      N        0.05840    0.48200    0.55470    1.000
    I40      I        0.01207    0.35070    0.63747    1.000
    N45      N        0.41650    0.48030    0.94760    1.000
    I41      I        0.38279    0.25090    0.89779    1.000
    I42      I        0.34414    0.39110    0.00962    1.000
    C127     C        0.43530    0.48510    0.91460    1.000
    C128     C        0.42880    0.53080    0.98350    1.000
    C129     C        0.46740    0.54050    0.91450    1.000
    H85      H        0.42650    0.44860    0.88940    1.000
    C130     C        0.46160    0.58850    0.98520    1.000
    H86      H        0.41530    0.52760    0.00780    1.000
    H87      H        0.48030    0.54270    0.88970    1.000
    C131     C        0.48090    0.59320    0.95110    1.000
    H88      H        0.47030    0.62430    0.01070    1.000
    C132     C        0.51350    0.65680    0.95120    1.000
    N46      N        0.53680    0.64080    0.92180    1.000
    N47      N        0.51678    0.72700    0.97860    1.000
    C133     C        0.56520    0.70260    0.92070    1.000
    C134     C        0.54560    0.78330    0.97420    1.000
    N48      N        0.57110    0.77430    0.94630    1.000
    C135     C        0.59120    0.68970    0.88730    1.000
    C136     C        0.54950    0.86600    0.00240    1.000
    C137     C        0.62470    0.74090    0.88800    1.000
    C138     C        0.58180    0.62310    0.85530    1.000
    C139     C        0.58040    0.92410    0.00130    1.000
    C140     C        0.52240    0.88690    0.02830    1.000
    C141     C        0.64730    0.72580    0.85710    1.000
    H89      H        0.63190    0.78610    0.90980    1.000
    C142     C        0.60700    0.61380    0.82520    1.000
    H90      H        0.55910    0.58570    0.85430    1.000
    H91      H        0.59890    0.91290    0.98230    1.000
    C143     C        0.58450    0.99990    0.02830    1.000
    C144     C        0.52780    0.96420    0.05400    1.000
    H92      H        0.50000    0.84910    0.02880    1.000
    H93      H        0.67060    0.76140    0.85800    1.000
    H94      H        0.60080    0.56870    0.80320    1.000
    H95      H        0.60630    0.03950    0.02800    1.000
    H96      H        0.50860    0.97850    0.07180    1.000
    Zn22     Zn       0.18040    0.14850    0.78610    1.000
    I43      I        0.13750    0.19080    0.71130    1.000
    I44      I        0.24600    0.22140    0.81680    1.000
    Zn23     Zn       0.86700    0.90520    0.94650    1.000
    I45      I        0.83560    0.91860    0.01590    1.000
    I46      I        0.88358    0.75790    0.91230    1.000
    Zn24     Zn       0.57710    0.87650    0.59700    1.000
    I47      I        0.51940    0.83860    0.63510    1.000
    I48      I        0.61570    0.76390    0.56500    1.000
    I49      I        0.38156    0.32330    0.29876    1.000
    Zn25     Zn       0.33105    0.35080    0.22750    1.000
    I50      I        0.26829    0.26100    0.20449    1.000
    N49      N        0.36120    0.33720    0.17520    1.000
    N50      N        0.31610    0.48790    0.22270    1.000
    C145     C        0.33960    0.54310    0.24910    1.000
    C146     C        0.28590    0.52380    0.19460    1.000
    C147     C        0.33420    0.63330    0.24940    1.000
    H97      H        0.36160    0.51840    0.26900    1.000
    C148     C        0.27760    0.61380    0.19340    1.000
    H98      H        0.26940    0.48540    0.17450    1.000
    C149     C        0.30260    0.67040    0.22030    1.000
    H99      H        0.35180    0.67020    0.26930    1.000
    H100     H        0.25480    0.63650    0.17400    1.000
    C150     C        0.29570    0.76970    0.22040    1.000
    N51      N        0.32063    0.81480    0.25100    1.000
    N52      N        0.26590    0.80460    0.19180    1.000
    C151     C        0.31220    0.90060    0.25370    1.000
    C152     C        0.26050    0.89320    0.19620    1.000
    C153     C        0.33790    0.95480    0.28840    1.000
    N53      N        0.28234    0.94430    0.22750    1.000
    C154     C        0.22920    0.94010    0.16500    1.000
    C155     C        0.37160    0.91620    0.31230    1.000
    C156     C        0.32850    0.04150    0.29730    1.000
    C157     C        0.22520    0.03070    0.16730    1.000
    C158     C        0.20290    0.89490    0.13260    1.000
    C159     C        0.39580    0.96620    0.34420    1.000
    H101     H        0.37820    0.85590    0.30690    1.000
    C160     C        0.35380    0.08660    0.33090    1.000
    H102     H        0.30550    0.06990    0.28100    1.000
    H103     H        0.24210    0.06370    0.18970    1.000
    C161     C        0.19690    0.07410    0.13730    1.000
    C162     C        0.17570    0.94290    0.10370    1.000
    H104     H        0.20380    0.83140    0.13060    1.000
    N54      N        0.38670    0.05020    0.35390    1.000
    H105     H        0.41970    0.94000    0.35980    1.000
    H106     H        0.34720    0.14620    0.33770    1.000
    N55      N        0.17230    0.03050    0.10540    1.000
    H107     H        0.19470    0.13740    0.13920    1.000
    H108     H        0.15840    0.91140    0.08110    1.000
    Zn26     Zn       0.42811    0.12000    0.39900    1.000
    Zn27     Zn       0.13331    0.10780    0.06330    1.000
    I51      I        0.38968    0.23711    0.43566    1.000
    N56      N        0.44160    0.01800    0.44530    1.000
    I52      I        0.48793    0.14930    0.36253    1.000
    N57      N        0.08350    0.01970    0.05240    1.000
    I53      I        0.11721    0.24910    0.10221    1.000
    I54      I        0.15586    0.10890    0.99038    1.000
    C163     C        0.06470    0.01490    0.08540    1.000
    C164     C        0.07120    0.96920    0.01650    1.000
    C165     C        0.03260    0.95950    0.08550    1.000
    H109     H        0.07350    0.05140    0.11060    1.000
    C166     C        0.03840    0.91150    0.01480    1.000
    H110     H        0.08470    0.97240    0.99220    1.000
    H111     H        0.01970    0.95730    0.11030    1.000
    C167     C        0.01910    0.90680    0.04890    1.000
    H112     H        0.02970    0.87570    0.98930    1.000
    C168     C        0.98650    0.84320    0.04880    1.000
    N58      N        0.96320    0.85920    0.07820    1.000
    N59      N        0.98322    0.77300    0.02140    1.000
    C169     C        0.93480    0.79740    0.07930    1.000
    C170     C        0.95440    0.71670    0.02580    1.000
    N60      N        0.92890    0.72570    0.05370    1.000
    C171     C        0.90880    0.81030    0.11270    1.000
    C172     C        0.95050    0.63400    0.99760    1.000
    C173     C        0.87530    0.75910    0.11200    1.000
    C174     C        0.91820    0.87690    0.14470    1.000
    C175     C        0.91960    0.57590    0.99870    1.000
    C176     C        0.97760    0.61310    0.97170    1.000
    C177     C        0.85270    0.77420    0.14290    1.000
    H113     H        0.86810    0.71390    0.09020    1.000
    C178     C        0.89300    0.88620    0.17480    1.000
    H114     H        0.94090    0.91430    0.14570    1.000
    H115     H        0.90110    0.58710    0.01770    1.000
    C179     C        0.91550    0.50010    0.97170    1.000
    C180     C        0.97220    0.53580    0.94600    1.000
    H116     H        0.00000    0.65090    0.97120    1.000
    H117     H        0.82940    0.73860    0.14200    1.000
    H118     H        0.89920    0.93130    0.19680    1.000
    H119     H        0.89370    0.46050    0.97200    1.000
    H120     H        0.99140    0.52150    0.92820    1.000
    Zn28     Zn       0.31960    0.35150    0.21390    1.000
    I55      I        0.36250    0.30920    0.28870    1.000
    I56      I        0.25400    0.27860    0.18320    1.000
    Zn29     Zn       0.63300    0.59480    0.05350    1.000
    I57      I        0.66440    0.58140    0.98410    1.000
    I58      I        0.61642    0.74210    0.08770    1.000
    Zn30     Zn       0.92290    0.62350    0.40300    1.000
    I59      I        0.98060    0.66140    0.36490    1.000
    I60      I        0.88430    0.73610    0.43500    1.000
    I61      I        0.88156    0.82330    0.29876    1.000
    Zn31     Zn       0.83105    0.85080    0.22750    1.000
    I62      I        0.76829    0.76100    0.20449    1.000
    N61      N        0.86120    0.83720    0.17520    1.000
    N62      N        0.81610    0.98790    0.22270    1.000
    C181     C        0.83960    0.04310    0.24910    1.000
    C182     C        0.78590    0.02380    0.19460    1.000
    C183     C        0.83420    0.13330    0.24940    1.000
    H121     H        0.86160    0.01840    0.26900    1.000
    C184     C        0.77760    0.11380    0.19340    1.000
    H122     H        0.76940    0.98540    0.17450    1.000
    C185     C        0.80260    0.17040    0.22030    1.000
    H123     H        0.85180    0.17020    0.26930    1.000
    H124     H        0.75480    0.13650    0.17400    1.000
    C186     C        0.79570    0.26970    0.22040    1.000
    N63      N        0.82063    0.31480    0.25100    1.000
    N64      N        0.76590    0.30460    0.19180    1.000
    C187     C        0.81220    0.40060    0.25370    1.000
    C188     C        0.76050    0.39320    0.19620    1.000
    C189     C        0.83790    0.45480    0.28840    1.000
    N65      N        0.78234    0.44430    0.22750    1.000
    C190     C        0.72920    0.44010    0.16500    1.000
    C191     C        0.87160    0.41620    0.31230    1.000
    C192     C        0.82850    0.54150    0.29730    1.000
    C193     C        0.72520    0.53070    0.16730    1.000
    C194     C        0.70290    0.39490    0.13260    1.000
    C195     C        0.89580    0.46620    0.34420    1.000
    H125     H        0.87820    0.35590    0.30690    1.000
    C196     C        0.85380    0.58660    0.33090    1.000
    H126     H        0.80550    0.56990    0.28100    1.000
    H127     H        0.74210    0.56370    0.18970    1.000
    C197     C        0.69690    0.57410    0.13730    1.000
    C198     C        0.67570    0.44290    0.10370    1.000
    H128     H        0.70380    0.33140    0.13060    1.000
    N66      N        0.88670    0.55020    0.35390    1.000
    H129     H        0.91970    0.44000    0.35980    1.000
    H130     H        0.84720    0.64620    0.33770    1.000
    N67      N        0.67230    0.53050    0.10540    1.000
    H131     H        0.69470    0.63740    0.13920    1.000
    H132     H        0.65840    0.41140    0.08110    1.000
    Zn32     Zn       0.92811    0.62000    0.39900    1.000
    Zn33     Zn       0.63331    0.60780    0.06330    1.000
    I63      I        0.88968    0.73711    0.43566    1.000
    N68      N        0.94160    0.51800    0.44530    1.000
    I64      I        0.98793    0.64930    0.36253    1.000
    N69      N        0.58350    0.51970    0.05240    1.000
    I65      I        0.61721    0.74910    0.10221    1.000
    I66      I        0.65586    0.60890    0.99038    1.000
    C199     C        0.56470    0.51490    0.08540    1.000
    C200     C        0.57120    0.46920    0.01650    1.000
    C201     C        0.53260    0.45950    0.08550    1.000
    H133     H        0.57350    0.55140    0.11060    1.000
    C202     C        0.53840    0.41150    0.01480    1.000
    H134     H        0.58470    0.47240    0.99220    1.000
    H135     H        0.51970    0.45730    0.11030    1.000
    C203     C        0.51910    0.40680    0.04890    1.000
    H136     H        0.52970    0.37570    0.98930    1.000
    C204     C        0.48650    0.34320    0.04880    1.000
    N70      N        0.46320    0.35920    0.07820    1.000
    N71      N        0.48322    0.27300    0.02140    1.000
    C205     C        0.43480    0.29740    0.07930    1.000
    C206     C        0.45440    0.21670    0.02580    1.000
    N72      N        0.42890    0.22570    0.05370    1.000
    C207     C        0.40880    0.31030    0.11270    1.000
    C208     C        0.45050    0.13400    0.99760    1.000
    C209     C        0.37530    0.25910    0.11200    1.000
    C210     C        0.41820    0.37690    0.14470    1.000
    C211     C        0.41960    0.07590    0.99870    1.000
    C212     C        0.47760    0.11310    0.97170    1.000
    C213     C        0.35270    0.27420    0.14290    1.000
    H137     H        0.36810    0.21390    0.09020    1.000
    C214     C        0.39300    0.38620    0.17480    1.000
    H138     H        0.44090    0.41430    0.14570    1.000
    H139     H        0.40110    0.08710    0.01770    1.000
    C215     C        0.41550    0.00010    0.97170    1.000
    C216     C        0.47220    0.03580    0.94600    1.000
    H140     H        0.50000    0.15090    0.97120    1.000
    H141     H        0.32940    0.23860    0.14200    1.000
    H142     H        0.39920    0.43130    0.19680    1.000
    H143     H        0.39370    0.96050    0.97200    1.000
    H144     H        0.49140    0.02150    0.92820    1.000
    Zn34     Zn       0.81960    0.85150    0.21390    1.000
    I67      I        0.86250    0.80920    0.28870    1.000
    I68      I        0.75400    0.77860    0.18320    1.000
    Zn35     Zn       0.13300    0.09480    0.05350    1.000
    I69      I        0.16440    0.08140    0.98410    1.000
    I70      I        0.11642    0.24210    0.08770    1.000
    Zn36     Zn       0.42290    0.12350    0.40300    1.000
    I71      I        0.48060    0.16140    0.36490    1.000
    I72      I        0.38430    0.23610    0.43500    1.000
    I73      I        0.38156    0.67670    0.79876    1.000
    Zn37     Zn       0.33105    0.64920    0.72750    1.000
    I74      I        0.26829    0.73900    0.70449    1.000
    N73      N        0.36120    0.66280    0.67520    1.000
    N74      N        0.31610    0.51210    0.72270    1.000
    C217     C        0.33960    0.45690    0.74910    1.000
    C218     C        0.28590    0.47620    0.69460    1.000
    C219     C        0.33420    0.36670    0.74940    1.000
    H145     H        0.36160    0.48160    0.76900    1.000
    C220     C        0.27760    0.38620    0.69340    1.000
    H146     H        0.26940    0.51460    0.67450    1.000
    C221     C        0.30260    0.32960    0.72030    1.000
    H147     H        0.35180    0.32980    0.76930    1.000
    H148     H        0.25480    0.36350    0.67400    1.000
    C222     C        0.29570    0.23030    0.72040    1.000
    N75      N        0.32063    0.18520    0.75100    1.000
    N76      N        0.26590    0.19540    0.69180    1.000
    C223     C        0.31220    0.09940    0.75370    1.000
    C224     C        0.26050    0.10680    0.69620    1.000
    C225     C        0.33790    0.04520    0.78840    1.000
    N77      N        0.28234    0.05570    0.72750    1.000
    C226     C        0.22920    0.05990    0.66500    1.000
    C227     C        0.37160    0.08380    0.81230    1.000
    C228     C        0.32850    0.95850    0.79730    1.000
    C229     C        0.22520    0.96930    0.66730    1.000
    C230     C        0.20290    0.10510    0.63260    1.000
    C231     C        0.39580    0.03380    0.84420    1.000
    H149     H        0.37820    0.14410    0.80690    1.000
    C232     C        0.35380    0.91340    0.83090    1.000
    H150     H        0.30550    0.93010    0.78100    1.000
    H151     H        0.24210    0.93630    0.68970    1.000
    C233     C        0.19690    0.92590    0.63730    1.000
    C234     C        0.17570    0.05710    0.60370    1.000
    H152     H        0.20380    0.16860    0.63060    1.000
    N78      N        0.38670    0.94980    0.85390    1.000
    H153     H        0.41970    0.06000    0.85980    1.000
    H154     H        0.34720    0.85380    0.83770    1.000
    N79      N        0.17230    0.96950    0.60540    1.000
    H155     H        0.19470    0.86260    0.63920    1.000
    H156     H        0.15840    0.08860    0.58110    1.000
    Zn38     Zn       0.42811    0.88000    0.89900    1.000
    Zn39     Zn       0.13331    0.89220    0.56330    1.000
    I75      I        0.38968    0.76289    0.93566    1.000
    N80      N        0.44160    0.98200    0.94530    1.000
    I76      I        0.48793    0.85070    0.86253    1.000
    N81      N        0.08350    0.98030    0.55240    1.000
    I77      I        0.11721    0.75090    0.60221    1.000
    I78      I        0.15586    0.89110    0.49038    1.000
    C235     C        0.06470    0.98510    0.58540    1.000
    C236     C        0.07120    0.03080    0.51650    1.000
    C237     C        0.03260    0.04050    0.58550    1.000
    H157     H        0.07350    0.94860    0.61060    1.000
    C238     C        0.03840    0.08850    0.51480    1.000
    H158     H        0.08470    0.02760    0.49220    1.000
    H159     H        0.01970    0.04270    0.61030    1.000
    C239     C        0.01910    0.09320    0.54890    1.000
    H160     H        0.02970    0.12430    0.48930    1.000
    C240     C        0.98650    0.15680    0.54880    1.000
    N82      N        0.96320    0.14080    0.57820    1.000
    N83      N        0.98322    0.22700    0.52140    1.000
    C241     C        0.93480    0.20260    0.57930    1.000
    C242     C        0.95440    0.28330    0.52580    1.000
    N84      N        0.92890    0.27430    0.55370    1.000
    C243     C        0.90880    0.18970    0.61270    1.000
    C244     C        0.95050    0.36600    0.49760    1.000
    C245     C        0.87530    0.24090    0.61200    1.000
    C246     C        0.91820    0.12310    0.64470    1.000
    C247     C        0.91960    0.42410    0.49870    1.000
    C248     C        0.97760    0.38690    0.47170    1.000
    C249     C        0.85270    0.22580    0.64290    1.000
    H161     H        0.86810    0.28610    0.59020    1.000
    C250     C        0.89300    0.11380    0.67480    1.000
    H162     H        0.94090    0.08570    0.64570    1.000
    H163     H        0.90110    0.41290    0.51770    1.000
    C251     C        0.91550    0.49990    0.47170    1.000
    C252     C        0.97220    0.46420    0.44600    1.000
    H164     H        0.00000    0.34910    0.47120    1.000
    H165     H        0.82940    0.26140    0.64200    1.000
    H166     H        0.89920    0.06870    0.69680    1.000
    H167     H        0.89370    0.53950    0.47200    1.000
    H168     H        0.99140    0.47850    0.42820    1.000
    Zn40     Zn       0.31960    0.64850    0.71390    1.000
    I79      I        0.36250    0.69080    0.78870    1.000
    I80      I        0.25400    0.72140    0.68320    1.000
    Zn41     Zn       0.63300    0.40520    0.55350    1.000
    I81      I        0.66440    0.41860    0.48410    1.000
    I82      I        0.61642    0.25790    0.58770    1.000
    Zn42     Zn       0.92290    0.37650    0.90300    1.000
    I83      I        0.98060    0.33860    0.86490    1.000
    I84      I        0.88430    0.26390    0.93500    1.000
    I85      I        0.88156    0.17670    0.79876    1.000
    Zn43     Zn       0.83105    0.14920    0.72750    1.000
    I86      I        0.76829    0.23900    0.70449    1.000
    N85      N        0.86120    0.16280    0.67520    1.000
    N86      N        0.81610    0.01210    0.72270    1.000
    C253     C        0.83960    0.95690    0.74910    1.000
    C254     C        0.78590    0.97620    0.69460    1.000
    C255     C        0.83420    0.86670    0.74940    1.000
    H169     H        0.86160    0.98160    0.76900    1.000
    C256     C        0.77760    0.88620    0.69340    1.000
    H170     H        0.76940    0.01460    0.67450    1.000
    C257     C        0.80260    0.82960    0.72030    1.000
    H171     H        0.85180    0.82980    0.76930    1.000
    H172     H        0.75480    0.86350    0.67400    1.000
    C258     C        0.79570    0.73030    0.72040    1.000
    N87      N        0.82063    0.68520    0.75100    1.000
    N88      N        0.76590    0.69540    0.69180    1.000
    C259     C        0.81220    0.59940    0.75370    1.000
    C260     C        0.76050    0.60680    0.69620    1.000
    C261     C        0.83790    0.54520    0.78840    1.000
    N89      N        0.78234    0.55570    0.72750    1.000
    C262     C        0.72920    0.55990    0.66500    1.000
    C263     C        0.87160    0.58380    0.81230    1.000
    C264     C        0.82850    0.45850    0.79730    1.000
    C265     C        0.72520    0.46930    0.66730    1.000
    C266     C        0.70290    0.60510    0.63260    1.000
    C267     C        0.89580    0.53380    0.84420    1.000
    H173     H        0.87820    0.64410    0.80690    1.000
    C268     C        0.85380    0.41340    0.83090    1.000
    H174     H        0.80550    0.43010    0.78100    1.000
    H175     H        0.74210    0.43630    0.68970    1.000
    C269     C        0.69690    0.42590    0.63730    1.000
    C270     C        0.67570    0.55710    0.60370    1.000
    H176     H        0.70380    0.66860    0.63060    1.000
    N90      N        0.88670    0.44980    0.85390    1.000
    H177     H        0.91970    0.56000    0.85980    1.000
    H178     H        0.84720    0.35380    0.83770    1.000
    N91      N        0.67230    0.46950    0.60540    1.000
    H179     H        0.69470    0.36260    0.63920    1.000
    H180     H        0.65840    0.58860    0.58110    1.000
    Zn44     Zn       0.92811    0.38000    0.89900    1.000
    Zn45     Zn       0.63331    0.39220    0.56330    1.000
    I87      I        0.88968    0.26289    0.93566    1.000
    N92      N        0.94160    0.48200    0.94530    1.000
    I88      I        0.98793    0.35070    0.86253    1.000
    N93      N        0.58350    0.48030    0.55240    1.000
    I89      I        0.61721    0.25090    0.60221    1.000
    I90      I        0.65586    0.39110    0.49038    1.000
    C271     C        0.56470    0.48510    0.58540    1.000
    C272     C        0.57120    0.53080    0.51650    1.000
    C273     C        0.53260    0.54050    0.58550    1.000
    H181     H        0.57350    0.44860    0.61060    1.000
    C274     C        0.53840    0.58850    0.51480    1.000
    H182     H        0.58470    0.52760    0.49220    1.000
    H183     H        0.51970    0.54270    0.61030    1.000
    C275     C        0.51910    0.59320    0.54890    1.000
    H184     H        0.52970    0.62430    0.48930    1.000
    C276     C        0.48650    0.65680    0.54880    1.000
    N94      N        0.46320    0.64080    0.57820    1.000
    N95      N        0.48322    0.72700    0.52140    1.000
    C277     C        0.43480    0.70260    0.57930    1.000
    C278     C        0.45440    0.78330    0.52580    1.000
    N96      N        0.42890    0.77430    0.55370    1.000
    C279     C        0.40880    0.68970    0.61270    1.000
    C280     C        0.45050    0.86600    0.49760    1.000
    C281     C        0.37530    0.74090    0.61200    1.000
    C282     C        0.41820    0.62310    0.64470    1.000
    C283     C        0.41960    0.92410    0.49870    1.000
    C284     C        0.47760    0.88690    0.47170    1.000
    C285     C        0.35270    0.72580    0.64290    1.000
    H185     H        0.36810    0.78610    0.59020    1.000
    C286     C        0.39300    0.61380    0.67480    1.000
    H186     H        0.44090    0.58570    0.64570    1.000
    H187     H        0.40110    0.91290    0.51770    1.000
    C287     C        0.41550    0.99990    0.47170    1.000
    C288     C        0.47220    0.96420    0.44600    1.000
    H188     H        0.50000    0.84910    0.47120    1.000
    H189     H        0.32940    0.76140    0.64200    1.000
    H190     H        0.39920    0.56870    0.69680    1.000
    H191     H        0.39370    0.03950    0.47200    1.000
    H192     H        0.49140    0.97850    0.42820    1.000
    Zn46     Zn       0.81960    0.14850    0.71390    1.000
    I91      I        0.86250    0.19080    0.78870    1.000
    I92      I        0.75400    0.22140    0.68320    1.000
    Zn47     Zn       0.13300    0.90520    0.55350    1.000
    I93      I        0.16440    0.91860    0.48410    1.000
    I94      I        0.11642    0.75790    0.58770    1.000
    Zn48     Zn       0.42290    0.87650    0.90300    1.000
    I95      I        0.48060    0.83860    0.86490    1.000
    I96      I        0.38430    0.76390    0.93500    1.000
