# CIF file generated by openbabel 3.1.0, see https://openbabel.org
data_I
_chemical_name_common 'image0'
_cell_length_a 18.3439
_cell_length_b 8.809
_cell_length_c 23.4388
_cell_angle_alpha 90
_cell_angle_beta 101.965
_cell_angle_gamma 90
_space_group_name_H-M_alt 'P 1'
_space_group_name_Hall 'P 1'
loop_
    _symmetry_equiv_pos_as_xyz
    x,y,z
loop_
    _atom_site_label
    _atom_site_type_symbol
    _atom_site_fract_x
    _atom_site_fract_y
    _atom_site_fract_z
    _atom_site_occupancy
    Zn1      Zn       0.42347    0.70336    0.69666    1.000
    O1       O        0.43929    0.82160    0.62234    1.000
    O2       O        0.59560    0.59510    0.72867    1.000
    O3       O        0.81566    0.12970    0.65266    1.000
    C1       C        0.54861    0.29970    0.61971    1.000
    H1       H        0.49600    0.31050    0.60950    1.000
    O4       O        0.82419    0.35010    0.69756    1.000
    O5       O        0.48394    0.52750    0.67640    1.000
    O6       O        0.53326    0.97350    0.66152    1.000
    C2       C        0.58351    0.18750    0.59322    1.000
    C3       C        0.48864    0.91720    0.61909    1.000
    C4       C        0.66772    0.37990    0.67584    1.000
    H2       H        0.69650    0.44580    0.70390    1.000
    C5       C        0.55379    0.51640    0.69109    1.000
    C6       C        0.66076    0.17220    0.60808    1.000
    H3       H        0.68480    0.09640    0.58980    1.000
    C7       C        0.70286    0.26760    0.64967    1.000
    C8       C        0.54369    0.11810    0.48919    1.000
    H4       H        0.57410    0.20000    0.48170    1.000
    C9       C        0.59032    0.39640    0.66109    1.000
    C10      C        0.53959    0.08710    0.54692    1.000
    C11      C        0.49489    0.96590    0.55792    1.000
    C12      C        0.78591    0.24760    0.66721    1.000
    H5       H        0.49000    0.91100    0.77800    1.000
    Zn2      Zn       0.92347    0.20336    0.69666    1.000
    O7       O        0.93929    0.32160    0.62234    1.000
    O8       O        0.09560    0.09510    0.72867    1.000
    O9       O        0.31566    0.62970    0.65266    1.000
    C13      C        0.04861    0.79970    0.61971    1.000
    H6       H        0.99600    0.81050    0.60950    1.000
    O10      O        0.32419    0.85010    0.69756    1.000
    O11      O        0.98394    0.02750    0.67640    1.000
    O12      O        0.03326    0.47350    0.66152    1.000
    C14      C        0.08351    0.68750    0.59322    1.000
    C15      C        0.98864    0.41720    0.61909    1.000
    C16      C        0.16772    0.87990    0.67584    1.000
    H7       H        0.19650    0.94580    0.70390    1.000
    C17      C        0.05379    0.01640    0.69109    1.000
    C18      C        0.16076    0.67220    0.60808    1.000
    H8       H        0.18480    0.59640    0.58980    1.000
    C19      C        0.20286    0.76760    0.64967    1.000
    C20      C        0.04369    0.61810    0.48919    1.000
    H9       H        0.07410    0.70000    0.48170    1.000
    C21      C        0.09032    0.89640    0.66109    1.000
    C22      C        0.03959    0.58710    0.54692    1.000
    C23      C        0.99489    0.46590    0.55792    1.000
    C24      C        0.28591    0.74760    0.66721    1.000
    H10      H        0.99000    0.41100    0.77800    1.000
    Zn3      Zn       0.57653    0.70336    0.80334    1.000
    O13      O        0.56071    0.82160    0.87766    1.000
    O14      O        0.40440    0.59510    0.77133    1.000
    O15      O        0.18434    0.12970    0.84734    1.000
    C25      C        0.45139    0.29970    0.88029    1.000
    H11      H        0.50400    0.31050    0.89050    1.000
    O16      O        0.17581    0.35010    0.80244    1.000
    O17      O        0.51606    0.52750    0.82360    1.000
    O18      O        0.46674    0.97350    0.83848    1.000
    C26      C        0.41649    0.18750    0.90678    1.000
    C27      C        0.51136    0.91720    0.88091    1.000
    C28      C        0.33228    0.37990    0.82416    1.000
    H12      H        0.30350    0.44580    0.79610    1.000
    C29      C        0.44621    0.51640    0.80891    1.000
    C30      C        0.33924    0.17220    0.89192    1.000
    H13      H        0.31520    0.09640    0.91020    1.000
    C31      C        0.29714    0.26760    0.85033    1.000
    C32      C        0.45631    0.11810    0.01081    1.000
    H14      H        0.42590    0.20000    0.01830    1.000
    C33      C        0.40968    0.39640    0.83891    1.000
    C34      C        0.46041    0.08710    0.95308    1.000
    C35      C        0.50511    0.96590    0.94208    1.000
    C36      C        0.21409    0.24760    0.83279    1.000
    H15      H        0.51000    0.91100    0.72200    1.000
    Zn4      Zn       0.07653    0.20336    0.80334    1.000
    O19      O        0.06071    0.32160    0.87766    1.000
    O20      O        0.90440    0.09510    0.77133    1.000
    O21      O        0.68434    0.62970    0.84734    1.000
    C37      C        0.95139    0.79970    0.88029    1.000
    H16      H        0.00400    0.81050    0.89050    1.000
    O22      O        0.67581    0.85010    0.80244    1.000
    O23      O        0.01606    0.02750    0.82360    1.000
    O24      O        0.96674    0.47350    0.83848    1.000
    C38      C        0.91649    0.68750    0.90678    1.000
    C39      C        0.01136    0.41720    0.88091    1.000
    C40      C        0.83228    0.87990    0.82416    1.000
    H17      H        0.80350    0.94580    0.79610    1.000
    C41      C        0.94621    0.01640    0.80891    1.000
    C42      C        0.83924    0.67220    0.89192    1.000
    H18      H        0.81520    0.59640    0.91020    1.000
    C43      C        0.79714    0.76760    0.85033    1.000
    C44      C        0.95631    0.61810    0.01081    1.000
    H19      H        0.92590    0.70000    0.01830    1.000
    C45      C        0.90968    0.89640    0.83891    1.000
    C46      C        0.96041    0.58710    0.95308    1.000
    C47      C        0.00511    0.46590    0.94208    1.000
    C48      C        0.71409    0.74760    0.83279    1.000
    H20      H        0.01000    0.41100    0.72200    1.000
    Zn5      Zn       0.57653    0.29664    0.30334    1.000
    O25      O        0.56071    0.17840    0.37766    1.000
    O26      O        0.40440    0.40490    0.27133    1.000
    O27      O        0.18434    0.87030    0.34734    1.000
    C49      C        0.45139    0.70030    0.38029    1.000
    H21      H        0.50400    0.68950    0.39050    1.000
    O28      O        0.17581    0.64990    0.30244    1.000
    O29      O        0.51606    0.47250    0.32360    1.000
    O30      O        0.46674    0.02650    0.33848    1.000
    C50      C        0.41649    0.81250    0.40678    1.000
    C51      C        0.51136    0.08280    0.38091    1.000
    C52      C        0.33228    0.62010    0.32416    1.000
    H22      H        0.30350    0.55420    0.29610    1.000
    C53      C        0.44621    0.48360    0.30891    1.000
    C54      C        0.33924    0.82780    0.39192    1.000
    H23      H        0.31520    0.90360    0.41020    1.000
    C55      C        0.29714    0.73240    0.35033    1.000
    C56      C        0.45631    0.88190    0.51081    1.000
    H24      H        0.42590    0.80000    0.51830    1.000
    C57      C        0.40968    0.60360    0.33891    1.000
    C58      C        0.46041    0.91290    0.45308    1.000
    C59      C        0.50511    0.03410    0.44208    1.000
    C60      C        0.21409    0.75240    0.33279    1.000
    H25      H        0.51000    0.08900    0.22200    1.000
    Zn6      Zn       0.07653    0.79664    0.30334    1.000
    O31      O        0.06071    0.67840    0.37766    1.000
    O32      O        0.90440    0.90490    0.27133    1.000
    O33      O        0.68434    0.37030    0.34734    1.000
    C61      C        0.95139    0.20030    0.38029    1.000
    H26      H        0.00400    0.18950    0.39050    1.000
    O34      O        0.67581    0.14990    0.30244    1.000
    O35      O        0.01606    0.97250    0.32360    1.000
    O36      O        0.96674    0.52650    0.33848    1.000
    C62      C        0.91649    0.31250    0.40678    1.000
    C63      C        0.01136    0.58280    0.38091    1.000
    C64      C        0.83228    0.12010    0.32416    1.000
    H27      H        0.80350    0.05420    0.29610    1.000
    C65      C        0.94621    0.98360    0.30891    1.000
    C66      C        0.83924    0.32780    0.39192    1.000
    H28      H        0.81520    0.40360    0.41020    1.000
    C67      C        0.79714    0.23240    0.35033    1.000
    C68      C        0.95631    0.38190    0.51081    1.000
    H29      H        0.92590    0.30000    0.51830    1.000
    C69      C        0.90968    0.10360    0.33891    1.000
    C70      C        0.96041    0.41290    0.45308    1.000
    C71      C        0.00511    0.53410    0.44208    1.000
    C72      C        0.71409    0.25240    0.33279    1.000
    H30      H        0.01000    0.58900    0.22200    1.000
    Zn7      Zn       0.42347    0.29664    0.19666    1.000
    O37      O        0.43929    0.17840    0.12234    1.000
    O38      O        0.59560    0.40490    0.22867    1.000
    O39      O        0.81566    0.87030    0.15266    1.000
    C73      C        0.54861    0.70030    0.11971    1.000
    H31      H        0.49600    0.68950    0.10950    1.000
    O40      O        0.82419    0.64990    0.19756    1.000
    O41      O        0.48394    0.47250    0.17640    1.000
    O42      O        0.53326    0.02650    0.16152    1.000
    C74      C        0.58351    0.81250    0.09322    1.000
    C75      C        0.48864    0.08280    0.11909    1.000
    C76      C        0.66772    0.62010    0.17584    1.000
    H32      H        0.69650    0.55420    0.20390    1.000
    C77      C        0.55379    0.48360    0.19109    1.000
    C78      C        0.66076    0.82780    0.10808    1.000
    H33      H        0.68480    0.90360    0.08980    1.000
    C79      C        0.70286    0.73240    0.14967    1.000
    C80      C        0.54369    0.88190    0.98919    1.000
    H34      H        0.57410    0.80000    0.98170    1.000
    C81      C        0.59032    0.60360    0.16109    1.000
    C82      C        0.53959    0.91290    0.04692    1.000
    C83      C        0.49489    0.03410    0.05792    1.000
    C84      C        0.78591    0.75240    0.16721    1.000
    H35      H        0.49000    0.08900    0.27800    1.000
    Zn8      Zn       0.92347    0.79664    0.19666    1.000
    O43      O        0.93929    0.67840    0.12234    1.000
    O44      O        0.09560    0.90490    0.22867    1.000
    O45      O        0.31566    0.37030    0.15266    1.000
    C85      C        0.04861    0.20030    0.11971    1.000
    H36      H        0.99600    0.18950    0.10950    1.000
    O46      O        0.32419    0.14990    0.19756    1.000
    O47      O        0.98394    0.97250    0.17640    1.000
    O48      O        0.03326    0.52650    0.16152    1.000
    C86      C        0.08351    0.31250    0.09322    1.000
    C87      C        0.98864    0.58280    0.11909    1.000
    C88      C        0.16772    0.12010    0.17584    1.000
    H37      H        0.19650    0.05420    0.20390    1.000
    C89      C        0.05379    0.98360    0.19109    1.000
    C90      C        0.16076    0.32780    0.10808    1.000
    H38      H        0.18480    0.40360    0.08980    1.000
    C91      C        0.20286    0.23240    0.14967    1.000
    C92      C        0.04369    0.38190    0.98919    1.000
    H39      H        0.07410    0.30000    0.98170    1.000
    C93      C        0.09032    0.10360    0.16109    1.000
    C94      C        0.03959    0.41290    0.04692    1.000
    C95      C        0.99489    0.53410    0.05792    1.000
    C96      C        0.28591    0.25240    0.16721    1.000
    H40      H        0.99000    0.58900    0.27800    1.000
    O49      O        0.50000    0.84410    0.75000    1.000
    O50      O        0.00000    0.34410    0.75000    1.000
    O51      O        0.50000    0.15590    0.25000    1.000
    O52      O        0.00000    0.65590    0.25000    1.000
