# CIF file generated by openbabel 3.1.0, see https://openbabel.org
data_I
_chemical_name_common 'image0'
_cell_length_a 8.2846
_cell_length_b 18.1175
_cell_length_c 20.7615
_cell_angle_alpha 90
_cell_angle_beta 97.678
_cell_angle_gamma 90
_space_group_name_H-M_alt 'P 1'
_space_group_name_Hall 'P 1'
loop_
    _symmetry_equiv_pos_as_xyz
    x,y,z
loop_
    _atom_site_label
    _atom_site_type_symbol
    _atom_site_fract_x
    _atom_site_fract_y
    _atom_site_fract_z
    _atom_site_occupancy
    Np1      Np       0.56850    0.80435    0.38162    1.000
    O1       O        0.49750    0.82310    0.45660    1.000
    O2       O        0.44810    0.67890    0.38820    1.000
    O3       O        0.70860    0.69170    0.42220    1.000
    O4       O        0.21040    0.42320    0.38690    1.000
    O5       O        0.36140    0.32910    0.42340    1.000
    O6       O        0.27480    0.80060    0.32910    1.000
    O7       O        0.41100    0.90440    0.32830    1.000
    C1       C        0.58460    0.65190    0.41120    1.000
    C2       C        0.60280    0.57070    0.42440    1.000
    C3       C        0.47160    0.52410    0.41190    1.000
    H1       H        0.36790    0.54310    0.39480    1.000
    C4       C        0.49080    0.44850    0.42440    1.000
    C5       C        0.64380    0.42060    0.44920    1.000
    H2       H        0.65750    0.36920    0.45730    1.000
    C6       C        0.77560    0.46800    0.46180    1.000
    H3       H        0.88000    0.44940    0.47850    1.000
    C7       C        0.75340    0.54330    0.44990    1.000
    H4       H        0.84290    0.57610    0.45930    1.000
    C8       C        0.34900    0.39720    0.41090    1.000
    C9       C        0.28160    0.86830    0.31350    1.000
    C10      C        0.13500    0.90590    0.27900    1.000
    C11      C        0.13520    0.98310    0.27840    1.000
    H5       H        0.22880    0.00930    0.29750    1.000
    Cs1      Cs       0.05635    0.69496    0.38883    1.000
    Np2      Np       0.06850    0.30435    0.38162    1.000
    O8       O        0.99750    0.32310    0.45660    1.000
    O9       O        0.94810    0.17890    0.38820    1.000
    O10      O        0.20860    0.19170    0.42220    1.000
    O11      O        0.71040    0.92320    0.38690    1.000
    O12      O        0.86140    0.82910    0.42340    1.000
    O13      O        0.77480    0.30060    0.32910    1.000
    O14      O        0.91100    0.40440    0.32830    1.000
    C12      C        0.08460    0.15190    0.41120    1.000
    C13      C        0.10280    0.07070    0.42440    1.000
    C14      C        0.97160    0.02410    0.41190    1.000
    H6       H        0.86790    0.04310    0.39480    1.000
    C15      C        0.99080    0.94850    0.42440    1.000
    C16      C        0.14380    0.92060    0.44920    1.000
    H7       H        0.15750    0.86920    0.45730    1.000
    C17      C        0.27560    0.96800    0.46180    1.000
    H8       H        0.38000    0.94940    0.47850    1.000
    C18      C        0.25340    0.04330    0.44990    1.000
    H9       H        0.34290    0.07610    0.45930    1.000
    C19      C        0.84900    0.89720    0.41090    1.000
    C20      C        0.78160    0.36830    0.31350    1.000
    C21      C        0.63500    0.40590    0.27900    1.000
    C22      C        0.63520    0.48310    0.27840    1.000
    H10      H        0.72880    0.50930    0.29750    1.000
    Cs2      Cs       0.55635    0.19496    0.38883    1.000
    Np3      Np       0.43150    0.80435    0.11838    1.000
    O15      O        0.50250    0.82310    0.04340    1.000
    O16      O        0.55190    0.67890    0.11180    1.000
    O17      O        0.29140    0.69170    0.07780    1.000
    O18      O        0.78960    0.42320    0.11310    1.000
    O19      O        0.63860    0.32910    0.07660    1.000
    O20      O        0.72520    0.80060    0.17090    1.000
    O21      O        0.58900    0.90440    0.17170    1.000
    C23      C        0.41540    0.65190    0.08880    1.000
    C24      C        0.39720    0.57070    0.07560    1.000
    C25      C        0.52840    0.52410    0.08810    1.000
    H11      H        0.63210    0.54310    0.10520    1.000
    C26      C        0.50920    0.44850    0.07560    1.000
    C27      C        0.35620    0.42060    0.05080    1.000
    H12      H        0.34250    0.36920    0.04270    1.000
    C28      C        0.22440    0.46800    0.03820    1.000
    H13      H        0.12000    0.44940    0.02150    1.000
    C29      C        0.24660    0.54330    0.05010    1.000
    H14      H        0.15710    0.57610    0.04070    1.000
    C30      C        0.65100    0.39720    0.08910    1.000
    C31      C        0.71840    0.86830    0.18650    1.000
    C32      C        0.86500    0.90590    0.22100    1.000
    C33      C        0.86480    0.98310    0.22160    1.000
    H15      H        0.77120    0.00930    0.20250    1.000
    Cs3      Cs       0.94365    0.69496    0.11117    1.000
    Np4      Np       0.93150    0.30435    0.11838    1.000
    O22      O        0.00250    0.32310    0.04340    1.000
    O23      O        0.05190    0.17890    0.11180    1.000
    O24      O        0.79140    0.19170    0.07780    1.000
    O25      O        0.28960    0.92320    0.11310    1.000
    O26      O        0.13860    0.82910    0.07660    1.000
    O27      O        0.22520    0.30060    0.17090    1.000
    O28      O        0.08900    0.40440    0.17170    1.000
    C34      C        0.91540    0.15190    0.08880    1.000
    C35      C        0.89720    0.07070    0.07560    1.000
    C36      C        0.02840    0.02410    0.08810    1.000
    H16      H        0.13210    0.04310    0.10520    1.000
    C37      C        0.00920    0.94850    0.07560    1.000
    C38      C        0.85620    0.92060    0.05080    1.000
    H17      H        0.84250    0.86920    0.04270    1.000
    C39      C        0.72440    0.96800    0.03820    1.000
    H18      H        0.62000    0.94940    0.02150    1.000
    C40      C        0.74660    0.04330    0.05010    1.000
    H19      H        0.65710    0.07610    0.04070    1.000
    C41      C        0.15100    0.89720    0.08910    1.000
    C42      C        0.21840    0.36830    0.18650    1.000
    C43      C        0.36500    0.40590    0.22100    1.000
    C44      C        0.36480    0.48310    0.22160    1.000
    H20      H        0.27120    0.50930    0.20250    1.000
    Cs4      Cs       0.44365    0.19496    0.11117    1.000
    Np5      Np       0.43150    0.19565    0.61838    1.000
    O29      O        0.50250    0.17690    0.54340    1.000
    O30      O        0.55190    0.32110    0.61180    1.000
    O31      O        0.29140    0.30830    0.57780    1.000
    O32      O        0.78960    0.57680    0.61310    1.000
    O33      O        0.63860    0.67090    0.57660    1.000
    O34      O        0.72520    0.19940    0.67090    1.000
    O35      O        0.58900    0.09560    0.67170    1.000
    C45      C        0.41540    0.34810    0.58880    1.000
    C46      C        0.39720    0.42930    0.57560    1.000
    C47      C        0.52840    0.47590    0.58810    1.000
    H21      H        0.63210    0.45690    0.60520    1.000
    C48      C        0.50920    0.55150    0.57560    1.000
    C49      C        0.35620    0.57940    0.55080    1.000
    H22      H        0.34250    0.63080    0.54270    1.000
    C50      C        0.22440    0.53200    0.53820    1.000
    H23      H        0.12000    0.55060    0.52150    1.000
    C51      C        0.24660    0.45670    0.55010    1.000
    H24      H        0.15710    0.42390    0.54070    1.000
    C52      C        0.65100    0.60280    0.58910    1.000
    C53      C        0.71840    0.13170    0.68650    1.000
    C54      C        0.86500    0.09410    0.72100    1.000
    C55      C        0.86480    0.01690    0.72160    1.000
    H25      H        0.77120    0.99070    0.70250    1.000
    Cs5      Cs       0.94365    0.30504    0.61117    1.000
    Np6      Np       0.93150    0.69565    0.61838    1.000
    O36      O        0.00250    0.67690    0.54340    1.000
    O37      O        0.05190    0.82110    0.61180    1.000
    O38      O        0.79140    0.80830    0.57780    1.000
    O39      O        0.28960    0.07680    0.61310    1.000
    O40      O        0.13860    0.17090    0.57660    1.000
    O41      O        0.22520    0.69940    0.67090    1.000
    O42      O        0.08900    0.59560    0.67170    1.000
    C56      C        0.91540    0.84810    0.58880    1.000
    C57      C        0.89720    0.92930    0.57560    1.000
    C58      C        0.02840    0.97590    0.58810    1.000
    H26      H        0.13210    0.95690    0.60520    1.000
    C59      C        0.00920    0.05150    0.57560    1.000
    C60      C        0.85620    0.07940    0.55080    1.000
    H27      H        0.84250    0.13080    0.54270    1.000
    C61      C        0.72440    0.03200    0.53820    1.000
    H28      H        0.62000    0.05060    0.52150    1.000
    C62      C        0.74660    0.95670    0.55010    1.000
    H29      H        0.65710    0.92390    0.54070    1.000
    C63      C        0.15100    0.10280    0.58910    1.000
    C64      C        0.21840    0.63170    0.68650    1.000
    C65      C        0.36500    0.59410    0.72100    1.000
    C66      C        0.36480    0.51690    0.72160    1.000
    H30      H        0.27120    0.49070    0.70250    1.000
    Cs6      Cs       0.44365    0.80504    0.61117    1.000
    Np7      Np       0.56850    0.19565    0.88162    1.000
    O43      O        0.49750    0.17690    0.95660    1.000
    O44      O        0.44810    0.32110    0.88820    1.000
    O45      O        0.70860    0.30830    0.92220    1.000
    O46      O        0.21040    0.57680    0.88690    1.000
    O47      O        0.36140    0.67090    0.92340    1.000
    O48      O        0.27480    0.19940    0.82910    1.000
    O49      O        0.41100    0.09560    0.82830    1.000
    C67      C        0.58460    0.34810    0.91120    1.000
    C68      C        0.60280    0.42930    0.92440    1.000
    C69      C        0.47160    0.47590    0.91190    1.000
    H31      H        0.36790    0.45690    0.89480    1.000
    C70      C        0.49080    0.55150    0.92440    1.000
    C71      C        0.64380    0.57940    0.94920    1.000
    H32      H        0.65750    0.63080    0.95730    1.000
    C72      C        0.77560    0.53200    0.96180    1.000
    H33      H        0.88000    0.55060    0.97850    1.000
    C73      C        0.75340    0.45670    0.94990    1.000
    H34      H        0.84290    0.42390    0.95930    1.000
    C74      C        0.34900    0.60280    0.91090    1.000
    C75      C        0.28160    0.13170    0.81350    1.000
    C76      C        0.13500    0.09410    0.77900    1.000
    C77      C        0.13520    0.01690    0.77840    1.000
    H35      H        0.22880    0.99070    0.79750    1.000
    Cs7      Cs       0.05635    0.30504    0.88883    1.000
    Np8      Np       0.06850    0.69565    0.88162    1.000
    O50      O        0.99750    0.67690    0.95660    1.000
    O51      O        0.94810    0.82110    0.88820    1.000
    O52      O        0.20860    0.80830    0.92220    1.000
    O53      O        0.71040    0.07680    0.88690    1.000
    O54      O        0.86140    0.17090    0.92340    1.000
    O55      O        0.77480    0.69940    0.82910    1.000
    O56      O        0.91100    0.59560    0.82830    1.000
    C78      C        0.08460    0.84810    0.91120    1.000
    C79      C        0.10280    0.92930    0.92440    1.000
    C80      C        0.97160    0.97590    0.91190    1.000
    H36      H        0.86790    0.95690    0.89480    1.000
    C81      C        0.99080    0.05150    0.92440    1.000
    C82      C        0.14380    0.07940    0.94920    1.000
    H37      H        0.15750    0.13080    0.95730    1.000
    C83      C        0.27560    0.03200    0.96180    1.000
    H38      H        0.38000    0.05060    0.97850    1.000
    C84      C        0.25340    0.95670    0.94990    1.000
    H39      H        0.34290    0.92390    0.95930    1.000
    C85      C        0.84900    0.10280    0.91090    1.000
    C86      C        0.78160    0.63170    0.81350    1.000
    C87      C        0.63500    0.59410    0.77900    1.000
    C88      C        0.63520    0.51690    0.77840    1.000
    H40      H        0.72880    0.49070    0.79750    1.000
    Cs8      Cs       0.55635    0.80504    0.88883    1.000
    C89      C        0.00000    0.86660    0.25000    1.000
    H41      H        0.00000    0.81410    0.25000    1.000
    C90      C        0.00000    0.02130    0.25000    1.000
    H42      H        0.00000    0.07380    0.25000    1.000
    C91      C        0.50000    0.36660    0.25000    1.000
    H43      H        0.50000    0.31410    0.25000    1.000
    C92      C        0.50000    0.52130    0.25000    1.000
    H44      H        0.50000    0.57380    0.25000    1.000
    C93      C        0.00000    0.13340    0.75000    1.000
    H45      H        0.00000    0.18590    0.75000    1.000
    C94      C        0.00000    0.97870    0.75000    1.000
    H46      H        0.00000    0.92620    0.75000    1.000
    C95      C        0.50000    0.63340    0.75000    1.000
    H47      H        0.50000    0.68590    0.75000    1.000
    C96      C        0.50000    0.47870    0.75000    1.000
    H48      H        0.50000    0.42620    0.75000    1.000
