# CIF file generated by openbabel 3.1.0, see https://openbabel.org
data_I
_chemical_name_common 'image0'
_cell_length_a 14.085
_cell_length_b 14.019
_cell_length_c 24.13
_cell_angle_alpha 90
_cell_angle_beta 90
_cell_angle_gamma 90
_space_group_name_H-M_alt 'P 1'
_space_group_name_Hall 'P 1'
loop_
    _symmetry_equiv_pos_as_xyz
    x,y,z
loop_
    _atom_site_label
    _atom_site_type_symbol
    _atom_site_fract_x
    _atom_site_fract_y
    _atom_site_fract_z
    _atom_site_occupancy
    Zn1      Zn       0.43961    0.09067    0.37345    1.000
    O1       O        0.54910    0.16400    0.39410    1.000
    O2       O        0.59100    0.11330    0.47780    1.000
    O3       O        0.80700    0.32520    0.59170    1.000
    O4       O        0.87890    0.44160    0.55040    1.000
    O5       O        0.47980    0.95830    0.35570    1.000
    O6       O        0.53600    0.91400    0.43830    1.000
    O7       O        0.59330    0.61330    0.20370    1.000
    O8       O        0.56330    0.76830    0.19310    1.000
    C1       C        0.65060    0.25940    0.44600    1.000
    C2       C        0.70220    0.27860    0.49370    1.000
    H1       H        0.70030    0.23520    0.52290    1.000
    C3       C        0.75660    0.36110    0.49920    1.000
    C4       C        0.75590    0.42640    0.45720    1.000
    H2       H        0.78930    0.48320    0.46100    1.000
    C5       C        0.70610    0.40860    0.40910    1.000
    H3       H        0.70730    0.45300    0.38040    1.000
    C6       C        0.65470    0.32630    0.40320    1.000
    H4       H        0.62220    0.31480    0.37030    1.000
    C7       C        0.59200    0.17160    0.43900    1.000
    C8       C        0.81720    0.37620    0.55080    1.000
    C9       C        0.55540    0.80910    0.36380    1.000
    C10      C        0.55220    0.79380    0.30690    1.000
    H5       H        0.52740    0.84110    0.28400    1.000
    C11      C        0.58480    0.71030    0.28360    1.000
    C12      C        0.62090    0.64150    0.31770    1.000
    H6       H        0.64210    0.58420    0.30280    1.000
    C13      C        0.62620    0.65640    0.37400    1.000
    H7       H        0.65380    0.61040    0.39660    1.000
    C14      C        0.59080    0.73920    0.39710    1.000
    H8       H        0.59110    0.74720    0.43540    1.000
    C15      C        0.52080    0.90080    0.38800    1.000
    C16      C        0.58040    0.69790    0.22250    1.000
    Zn2      Zn       0.06039    0.90933    0.87345    1.000
    O9       O        0.95090    0.83600    0.89410    1.000
    O10      O        0.90900    0.88670    0.97780    1.000
    O11      O        0.69300    0.67480    0.09170    1.000
    O12      O        0.62110    0.55840    0.05040    1.000
    O13      O        0.02020    0.04170    0.85570    1.000
    O14      O        0.96400    0.08600    0.93830    1.000
    O15      O        0.90670    0.38670    0.70370    1.000
    O16      O        0.93670    0.23170    0.69310    1.000
    C17      C        0.84940    0.74060    0.94600    1.000
    C18      C        0.79780    0.72140    0.99370    1.000
    H9       H        0.79970    0.76480    0.02290    1.000
    C19      C        0.74340    0.63890    0.99920    1.000
    C20      C        0.74410    0.57360    0.95720    1.000
    H10      H        0.71070    0.51680    0.96100    1.000
    C21      C        0.79390    0.59140    0.90910    1.000
    H11      H        0.79270    0.54700    0.88040    1.000
    C22      C        0.84530    0.67370    0.90320    1.000
    H12      H        0.87780    0.68520    0.87030    1.000
    C23      C        0.90800    0.82840    0.93900    1.000
    C24      C        0.68280    0.62380    0.05080    1.000
    C25      C        0.94460    0.19090    0.86380    1.000
    C26      C        0.94780    0.20620    0.80690    1.000
    H13      H        0.97260    0.15890    0.78400    1.000
    C27      C        0.91520    0.28970    0.78360    1.000
    C28      C        0.87910    0.35850    0.81770    1.000
    H14      H        0.85790    0.41580    0.80280    1.000
    C29      C        0.87380    0.34360    0.87400    1.000
    H15      H        0.84620    0.38960    0.89660    1.000
    C30      C        0.90920    0.26080    0.89710    1.000
    H16      H        0.90890    0.25280    0.93540    1.000
    C31      C        0.97920    0.09920    0.88800    1.000
    C32      C        0.91960    0.30210    0.72250    1.000
    Zn3      Zn       0.56039    0.59067    0.12655    1.000
    O17      O        0.45090    0.66400    0.10590    1.000
    O18      O        0.40900    0.61330    0.02220    1.000
    O19      O        0.19300    0.82520    0.90830    1.000
    O20      O        0.12110    0.94160    0.94960    1.000
    O21      O        0.52020    0.45830    0.14430    1.000
    O22      O        0.46400    0.41400    0.06170    1.000
    O23      O        0.40670    0.11330    0.29630    1.000
    O24      O        0.43670    0.26830    0.30690    1.000
    C33      C        0.34940    0.75940    0.05400    1.000
    C34      C        0.29780    0.77860    0.00630    1.000
    H17      H        0.29970    0.73520    0.97710    1.000
    C35      C        0.24340    0.86110    0.00080    1.000
    C36      C        0.24410    0.92640    0.04280    1.000
    H18      H        0.21070    0.98320    0.03900    1.000
    C37      C        0.29390    0.90860    0.09090    1.000
    H19      H        0.29270    0.95300    0.11960    1.000
    C38      C        0.34530    0.82630    0.09680    1.000
    H20      H        0.37780    0.81480    0.12970    1.000
    C39      C        0.40800    0.67160    0.06100    1.000
    C40      C        0.18280    0.87620    0.94920    1.000
    C41      C        0.44460    0.30910    0.13620    1.000
    C42      C        0.44780    0.29380    0.19310    1.000
    H21      H        0.47260    0.34110    0.21600    1.000
    C43      C        0.41520    0.21030    0.21640    1.000
    C44      C        0.37910    0.14150    0.18230    1.000
    H22      H        0.35790    0.08420    0.19720    1.000
    C45      C        0.37380    0.15640    0.12600    1.000
    H23      H        0.34620    0.11040    0.10340    1.000
    C46      C        0.40920    0.23920    0.10290    1.000
    H24      H        0.40890    0.24720    0.06460    1.000
    C47      C        0.47920    0.40080    0.11200    1.000
    C48      C        0.41960    0.19790    0.27750    1.000
    Zn4      Zn       0.93961    0.40933    0.62655    1.000
    O25      O        0.04910    0.33600    0.60590    1.000
    O26      O        0.09100    0.38670    0.52220    1.000
    O27      O        0.30700    0.17480    0.40830    1.000
    O28      O        0.37890    0.05840    0.44960    1.000
    O29      O        0.97980    0.54170    0.64430    1.000
    O30      O        0.03600    0.58600    0.56170    1.000
    O31      O        0.09330    0.88670    0.79630    1.000
    O32      O        0.06330    0.73170    0.80690    1.000
    C49      C        0.15060    0.24060    0.55400    1.000
    C50      C        0.20220    0.22140    0.50630    1.000
    H25      H        0.20030    0.26480    0.47710    1.000
    C51      C        0.25660    0.13890    0.50080    1.000
    C52      C        0.25590    0.07360    0.54280    1.000
    H26      H        0.28930    0.01680    0.53900    1.000
    C53      C        0.20610    0.09140    0.59090    1.000
    H27      H        0.20730    0.04700    0.61960    1.000
    C54      C        0.15470    0.17370    0.59680    1.000
    H28      H        0.12220    0.18520    0.62970    1.000
    C55      C        0.09200    0.32840    0.56100    1.000
    C56      C        0.31720    0.12380    0.44920    1.000
    C57      C        0.05540    0.69090    0.63620    1.000
    C58      C        0.05220    0.70620    0.69310    1.000
    H29      H        0.02740    0.65890    0.71600    1.000
    C59      C        0.08480    0.78970    0.71640    1.000
    C60      C        0.12090    0.85850    0.68230    1.000
    H30      H        0.14210    0.91580    0.69720    1.000
    C61      C        0.12620    0.84360    0.62600    1.000
    H31      H        0.15380    0.88960    0.60340    1.000
    C62      C        0.09080    0.76080    0.60290    1.000
    H32      H        0.09110    0.75280    0.56460    1.000
    C63      C        0.02080    0.59920    0.61200    1.000
    C64      C        0.08040    0.80210    0.77750    1.000
    Zn5      Zn       0.56039    0.90933    0.62655    1.000
    O33      O        0.45090    0.83600    0.60590    1.000
    O34      O        0.40900    0.88670    0.52220    1.000
    O35      O        0.19300    0.67480    0.40830    1.000
    O36      O        0.12110    0.55840    0.44960    1.000
    O37      O        0.52020    0.04170    0.64430    1.000
    O38      O        0.46400    0.08600    0.56170    1.000
    O39      O        0.40670    0.38670    0.79630    1.000
    O40      O        0.43670    0.23170    0.80690    1.000
    C65      C        0.34940    0.74060    0.55400    1.000
    C66      C        0.29780    0.72140    0.50630    1.000
    H33      H        0.29970    0.76480    0.47710    1.000
    C67      C        0.24340    0.63890    0.50080    1.000
    C68      C        0.24410    0.57360    0.54280    1.000
    H34      H        0.21070    0.51680    0.53900    1.000
    C69      C        0.29390    0.59140    0.59090    1.000
    H35      H        0.29270    0.54700    0.61960    1.000
    C70      C        0.34530    0.67370    0.59680    1.000
    H36      H        0.37780    0.68520    0.62970    1.000
    C71      C        0.40800    0.82840    0.56100    1.000
    C72      C        0.18280    0.62380    0.44920    1.000
    C73      C        0.44460    0.19090    0.63620    1.000
    C74      C        0.44780    0.20620    0.69310    1.000
    H37      H        0.47260    0.15890    0.71600    1.000
    C75      C        0.41520    0.28970    0.71640    1.000
    C76      C        0.37910    0.35850    0.68230    1.000
    H38      H        0.35790    0.41580    0.69720    1.000
    C77      C        0.37380    0.34360    0.62600    1.000
    H39      H        0.34620    0.38960    0.60340    1.000
    C78      C        0.40920    0.26080    0.60290    1.000
    H40      H        0.40890    0.25280    0.56460    1.000
    C79      C        0.47920    0.09920    0.61200    1.000
    C80      C        0.41960    0.30210    0.77750    1.000
    Zn6      Zn       0.93961    0.09067    0.12655    1.000
    O41      O        0.04910    0.16400    0.10590    1.000
    O42      O        0.09100    0.11330    0.02220    1.000
    O43      O        0.30700    0.32520    0.90830    1.000
    O44      O        0.37890    0.44160    0.94960    1.000
    O45      O        0.97980    0.95830    0.14430    1.000
    O46      O        0.03600    0.91400    0.06170    1.000
    O47      O        0.09330    0.61330    0.29630    1.000
    O48      O        0.06330    0.76830    0.30690    1.000
    C81      C        0.15060    0.25940    0.05400    1.000
    C82      C        0.20220    0.27860    0.00630    1.000
    H41      H        0.20030    0.23520    0.97710    1.000
    C83      C        0.25660    0.36110    0.00080    1.000
    C84      C        0.25590    0.42640    0.04280    1.000
    H42      H        0.28930    0.48320    0.03900    1.000
    C85      C        0.20610    0.40860    0.09090    1.000
    H43      H        0.20730    0.45300    0.11960    1.000
    C86      C        0.15470    0.32630    0.09680    1.000
    H44      H        0.12220    0.31480    0.12970    1.000
    C87      C        0.09200    0.17160    0.06100    1.000
    C88      C        0.31720    0.37620    0.94920    1.000
    C89      C        0.05540    0.80910    0.13620    1.000
    C90      C        0.05220    0.79380    0.19310    1.000
    H45      H        0.02740    0.84110    0.21600    1.000
    C91      C        0.08480    0.71030    0.21640    1.000
    C92      C        0.12090    0.64150    0.18230    1.000
    H46      H        0.14210    0.58420    0.19720    1.000
    C93      C        0.12620    0.65640    0.12600    1.000
    H47      H        0.15380    0.61040    0.10340    1.000
    C94      C        0.09080    0.73920    0.10290    1.000
    H48      H        0.09110    0.74720    0.06460    1.000
    C95      C        0.02080    0.90080    0.11200    1.000
    C96      C        0.08040    0.69790    0.27750    1.000
    Zn7      Zn       0.43961    0.40933    0.87345    1.000
    O49      O        0.54910    0.33600    0.89410    1.000
    O50      O        0.59100    0.38670    0.97780    1.000
    O51      O        0.80700    0.17480    0.09170    1.000
    O52      O        0.87890    0.05840    0.05040    1.000
    O53      O        0.47980    0.54170    0.85570    1.000
    O54      O        0.53600    0.58600    0.93830    1.000
    O55      O        0.59330    0.88670    0.70370    1.000
    O56      O        0.56330    0.73170    0.69310    1.000
    C97      C        0.65060    0.24060    0.94600    1.000
    C98      C        0.70220    0.22140    0.99370    1.000
    H49      H        0.70030    0.26480    0.02290    1.000
    C99      C        0.75660    0.13890    0.99920    1.000
    C100     C        0.75590    0.07360    0.95720    1.000
    H50      H        0.78930    0.01680    0.96100    1.000
    C101     C        0.70610    0.09140    0.90910    1.000
    H51      H        0.70730    0.04700    0.88040    1.000
    C102     C        0.65470    0.17370    0.90320    1.000
    H52      H        0.62220    0.18520    0.87030    1.000
    C103     C        0.59200    0.32840    0.93900    1.000
    C104     C        0.81720    0.12380    0.05080    1.000
    C105     C        0.55540    0.69090    0.86380    1.000
    C106     C        0.55220    0.70620    0.80690    1.000
    H53      H        0.52740    0.65890    0.78400    1.000
    C107     C        0.58480    0.78970    0.78360    1.000
    C108     C        0.62090    0.85850    0.81770    1.000
    H54      H        0.64210    0.91580    0.80280    1.000
    C109     C        0.62620    0.84360    0.87400    1.000
    H55      H        0.65380    0.88960    0.89660    1.000
    C110     C        0.59080    0.76080    0.89710    1.000
    H56      H        0.59110    0.75280    0.93540    1.000
    C111     C        0.52080    0.59920    0.88800    1.000
    C112     C        0.58040    0.80210    0.72250    1.000
    Zn8      Zn       0.06039    0.59067    0.37345    1.000
    O57      O        0.95090    0.66400    0.39410    1.000
    O58      O        0.90900    0.61330    0.47780    1.000
    O59      O        0.69300    0.82520    0.59170    1.000
    O60      O        0.62110    0.94160    0.55040    1.000
    O61      O        0.02020    0.45830    0.35570    1.000
    O62      O        0.96400    0.41400    0.43830    1.000
    O63      O        0.90670    0.11330    0.20370    1.000
    O64      O        0.93670    0.26830    0.19310    1.000
    C113     C        0.84940    0.75940    0.44600    1.000
    C114     C        0.79780    0.77860    0.49370    1.000
    H57      H        0.79970    0.73520    0.52290    1.000
    C115     C        0.74340    0.86110    0.49920    1.000
    C116     C        0.74410    0.92640    0.45720    1.000
    H58      H        0.71070    0.98320    0.46100    1.000
    C117     C        0.79390    0.90860    0.40910    1.000
    H59      H        0.79270    0.95300    0.38040    1.000
    C118     C        0.84530    0.82630    0.40320    1.000
    H60      H        0.87780    0.81480    0.37030    1.000
    C119     C        0.90800    0.67160    0.43900    1.000
    C120     C        0.68280    0.87620    0.55080    1.000
    C121     C        0.94460    0.30910    0.36380    1.000
    C122     C        0.94780    0.29380    0.30690    1.000
    H61      H        0.97260    0.34110    0.28400    1.000
    C123     C        0.91520    0.21030    0.28360    1.000
    C124     C        0.87910    0.14150    0.31770    1.000
    H62      H        0.85790    0.08420    0.30280    1.000
    C125     C        0.87380    0.15640    0.37400    1.000
    H63      H        0.84620    0.11040    0.39660    1.000
    C126     C        0.90920    0.23920    0.39710    1.000
    H64      H        0.90890    0.24720    0.43540    1.000
    C127     C        0.97920    0.40080    0.38800    1.000
    C128     C        0.91960    0.19790    0.22250    1.000
    Zn9      Zn       0.50000    0.00000    0.50000    1.000
    Zn10     Zn       0.00000    0.00000    0.00000    1.000
    Zn11     Zn       0.50000    0.50000    0.00000    1.000
    Zn12     Zn       0.00000    0.50000    0.50000    1.000
