# CIF file generated by openbabel 3.1.0, see https://openbabel.org
data_I
_chemical_name_common 'QARTEK_clean'
_cell_length_a 6.4232
_cell_length_b 15.4953
_cell_length_c 23.7594
_cell_angle_alpha 90
_cell_angle_beta 90
_cell_angle_gamma 99.749
_space_group_name_H-M_alt 'P 1'
_space_group_name_Hall 'P 1'
loop_
    _symmetry_equiv_pos_as_xyz
    x,y,z
loop_
    _atom_site_label
    _atom_site_type_symbol
    _atom_site_fract_x
    _atom_site_fract_y
    _atom_site_fract_z
    _atom_site_occupancy
    Cd1      Cd       0.73437    0.96983    0.46594    1.000
    Cd2      Cd       0.26563    0.53017    0.96594    1.000
    Cd3      Cd       0.26563    0.03017    0.53406    1.000
    Cd4      Cd       0.73437    0.46983    0.03406    1.000
    H1       H        0.15950    0.09460    0.32730    1.000
    H2       H        0.05400    0.36750    0.26690    1.000
    H3       H        0.59040    0.30040    0.40930    1.000
    H4       H        0.64070    0.39730    0.27260    1.000
    H5       H        0.66640    0.54760    0.25770    1.000
    H6       H        0.99070    0.59370    0.40130    1.000
    H7       H        0.98400    0.44440    0.41210    1.000
    H8       H        0.29700    0.43680    0.22290    1.000
    H9       H        0.17040    0.39170    0.17120    1.000
    H10      H        0.43540    0.49960    0.13750    1.000
    H11      H        0.60690    0.46050    0.17150    1.000
    H12      H        0.68980    0.31850    0.14330    1.000
    H13      H        0.57910    0.27190    0.08990    1.000
    H14      H        0.25520    0.24890    0.13690    1.000
    H15      H        0.42090    0.20580    0.17070    1.000
    H16      H        0.50630    0.40760    0.06730    1.000
    H17      H        0.84050    0.40540    0.82730    1.000
    H18      H        0.94600    0.13250    0.76690    1.000
    H19      H        0.40960    0.19960    0.90930    1.000
    H20      H        0.35930    0.10270    0.77260    1.000
    H21      H        0.33360    0.95240    0.75770    1.000
    H22      H        0.00930    0.90630    0.90130    1.000
    H23      H        0.01600    0.05560    0.91210    1.000
    H24      H        0.70300    0.06320    0.72290    1.000
    H25      H        0.82960    0.10830    0.67120    1.000
    H26      H        0.56460    0.00040    0.63750    1.000
    H27      H        0.39310    0.03950    0.67150    1.000
    H28      H        0.31020    0.18150    0.64330    1.000
    H29      H        0.42090    0.22810    0.58990    1.000
    H30      H        0.74480    0.25110    0.63690    1.000
    H31      H        0.57910    0.29420    0.67070    1.000
    H32      H        0.49370    0.09240    0.56730    1.000
    H33      H        0.84050    0.90540    0.67270    1.000
    H34      H        0.94600    0.63250    0.73310    1.000
    H35      H        0.40960    0.69960    0.59070    1.000
    H36      H        0.35930    0.60270    0.72740    1.000
    H37      H        0.33360    0.45240    0.74230    1.000
    H38      H        0.00930    0.40630    0.59870    1.000
    H39      H        0.01600    0.55560    0.58790    1.000
    H40      H        0.70300    0.56320    0.77710    1.000
    H41      H        0.82960    0.60830    0.82880    1.000
    H42      H        0.56460    0.50040    0.86250    1.000
    H43      H        0.39310    0.53950    0.82850    1.000
    H44      H        0.31020    0.68150    0.85670    1.000
    H45      H        0.42090    0.72810    0.91010    1.000
    H46      H        0.74480    0.75110    0.86310    1.000
    H47      H        0.57910    0.79420    0.82930    1.000
    H48      H        0.49370    0.59240    0.93270    1.000
    H49      H        0.15950    0.59460    0.17270    1.000
    H50      H        0.05400    0.86750    0.23310    1.000
    H51      H        0.59040    0.80040    0.09070    1.000
    H52      H        0.64070    0.89730    0.22740    1.000
    H53      H        0.66640    0.04760    0.24230    1.000
    H54      H        0.99070    0.09370    0.09870    1.000
    H55      H        0.98400    0.94440    0.08790    1.000
    H56      H        0.29700    0.93680    0.27710    1.000
    H57      H        0.17040    0.89170    0.32880    1.000
    H58      H        0.43540    0.99960    0.36250    1.000
    H59      H        0.60690    0.96050    0.32850    1.000
    H60      H        0.68980    0.81850    0.35670    1.000
    H61      H        0.57910    0.77190    0.41010    1.000
    H62      H        0.25520    0.74890    0.36310    1.000
    H63      H        0.42090    0.70580    0.32930    1.000
    H64      H        0.50630    0.90760    0.43270    1.000
    C1       C        0.53430    0.15190    0.45373    1.000
    C2       C        0.68820    0.18607    0.40818    1.000
    C3       C        0.84180    0.13972    0.38352    1.000
    C4       C        0.97710    0.18740    0.34083    1.000
    C5       C        0.13710    0.14970    0.31583    1.000
    C6       C        0.26030    0.19340    0.27483    1.000
    C7       C        0.22860    0.27440    0.25260    1.000
    C8       C        0.07700    0.31280    0.27907    1.000
    C9       C        0.95610    0.27189    0.32381    1.000
    C10      C        0.68560    0.27050    0.39150    1.000
    C11      C        0.81130    0.40671    0.34374    1.000
    C12      C        0.82510    0.58140    0.33000    1.000
    C13      C        0.71410    0.43690    0.29800    1.000
    C14      C        0.72480    0.52610    0.28950    1.000
    C15      C        0.92200    0.55410    0.37520    1.000
    C16      C        0.91590    0.46500    0.38160    1.000
    C17      C        0.30600    0.40010    0.19017    1.000
    C18      C        0.47570    0.44550    0.15070    1.000
    C19      C        0.55910    0.30840    0.12199    1.000
    C20      C        0.38510    0.26110    0.15848    1.000
    C21      C        0.46570    0.34810    0.95373    1.000
    C22      C        0.31180    0.31393    0.90818    1.000
    C23      C        0.15820    0.36028    0.88352    1.000
    C24      C        0.02290    0.31260    0.84083    1.000
    C25      C        0.86290    0.35030    0.81583    1.000
    C26      C        0.73970    0.30660    0.77483    1.000
    C27      C        0.77140    0.22560    0.75260    1.000
    C28      C        0.92300    0.18720    0.77907    1.000
    C29      C        0.04390    0.22811    0.82381    1.000
    C30      C        0.31440    0.22950    0.89150    1.000
    C31      C        0.18870    0.09329    0.84374    1.000
    C32      C        0.17490    0.91860    0.83000    1.000
    C33      C        0.28590    0.06310    0.79800    1.000
    C34      C        0.27520    0.97390    0.78950    1.000
    C35      C        0.07800    0.94590    0.87520    1.000
    C36      C        0.08410    0.03500    0.88160    1.000
    C37      C        0.69400    0.09990    0.69017    1.000
    C38      C        0.52430    0.05450    0.65070    1.000
    C39      C        0.44090    0.19160    0.62199    1.000
    C40      C        0.61490    0.23890    0.65848    1.000
    C41      C        0.46570    0.84810    0.54627    1.000
    C42      C        0.31180    0.81393    0.59182    1.000
    C43      C        0.15820    0.86028    0.61648    1.000
    C44      C        0.02290    0.81260    0.65917    1.000
    C45      C        0.86290    0.85030    0.68417    1.000
    C46      C        0.73970    0.80660    0.72517    1.000
    C47      C        0.77140    0.72560    0.74740    1.000
    C48      C        0.92300    0.68720    0.72093    1.000
    C49      C        0.04390    0.72811    0.67619    1.000
    C50      C        0.31440    0.72950    0.60850    1.000
    C51      C        0.18870    0.59329    0.65626    1.000
    C52      C        0.17490    0.41860    0.67000    1.000
    C53      C        0.28590    0.56310    0.70200    1.000
    C54      C        0.27520    0.47390    0.71050    1.000
    C55      C        0.07800    0.44590    0.62480    1.000
    C56      C        0.08410    0.53500    0.61840    1.000
    C57      C        0.69400    0.59990    0.80983    1.000
    C58      C        0.52430    0.55450    0.84930    1.000
    C59      C        0.44090    0.69160    0.87801    1.000
    C60      C        0.61490    0.73890    0.84152    1.000
    C61      C        0.53430    0.65190    0.04627    1.000
    C62      C        0.68820    0.68607    0.09182    1.000
    C63      C        0.84180    0.63972    0.11648    1.000
    C64      C        0.97710    0.68740    0.15917    1.000
    C65      C        0.13710    0.64970    0.18417    1.000
    C66      C        0.26030    0.69340    0.22517    1.000
    C67      C        0.22860    0.77440    0.24740    1.000
    C68      C        0.07700    0.81280    0.22093    1.000
    C69      C        0.95610    0.77189    0.17619    1.000
    C70      C        0.68560    0.77050    0.10850    1.000
    C71      C        0.81130    0.90671    0.15626    1.000
    C72      C        0.82510    0.08140    0.17000    1.000
    C73      C        0.71410    0.93690    0.20200    1.000
    C74      C        0.72480    0.02610    0.21050    1.000
    C75      C        0.92200    0.05410    0.12480    1.000
    C76      C        0.91590    0.96500    0.11840    1.000
    C77      C        0.30600    0.90010    0.30983    1.000
    C78      C        0.47570    0.94550    0.34930    1.000
    C79      C        0.55910    0.80840    0.37801    1.000
    C80      C        0.38510    0.76110    0.34152    1.000
    N1       N        0.51190    0.39215    0.10195    1.000
    N2       N        0.35280    0.31489    0.20839    1.000
    N3       N        0.80990    0.31345    0.35134    1.000
    N4       N        0.48810    0.10785    0.60195    1.000
    N5       N        0.64720    0.18511    0.70839    1.000
    N6       N        0.19010    0.18655    0.85134    1.000
    N7       N        0.48810    0.60785    0.89805    1.000
    N8       N        0.64720    0.68511    0.79161    1.000
    N9       N        0.19010    0.68655    0.64866    1.000
    N10      N        0.51190    0.89215    0.39805    1.000
    N11      N        0.35280    0.81489    0.29161    1.000
    N12      N        0.80990    0.81345    0.14866    1.000
    Cl1      Cl       0.05606    0.89828    0.46595    1.000
    Cl2      Cl       0.94394    0.60172    0.96595    1.000
    Cl3      Cl       0.94394    0.10172    0.53405    1.000
    Cl4      Cl       0.05606    0.39828    0.03405    1.000
    O1       O        0.48850    0.06842    0.46063    1.000
    O2       O        0.45880    0.20436    0.48348    1.000
    O3       O        0.86710    0.06357    0.39554    1.000
    O4       O        0.51150    0.43158    0.96063    1.000
    O5       O        0.54120    0.29564    0.98348    1.000
    O6       O        0.13290    0.43643    0.89554    1.000
    O7       O        0.51150    0.93158    0.53937    1.000
    O8       O        0.54120    0.79564    0.51652    1.000
    O9       O        0.13290    0.93643    0.60446    1.000
    O10      O        0.48850    0.56842    0.03937    1.000
    O11      O        0.45880    0.70436    0.01652    1.000
    O12      O        0.86710    0.56357    0.10446    1.000
    F1       F        0.42600    0.15673    0.25626    1.000
    F2       F        0.83300    0.66844    0.32259    1.000
    F3       F        0.57400    0.34327    0.75626    1.000
    F4       F        0.16700    0.83156    0.82259    1.000
    F5       F        0.57400    0.84327    0.74374    1.000
    F6       F        0.16700    0.33156    0.67741    1.000
    F7       F        0.42600    0.65673    0.24374    1.000
    F8       F        0.83300    0.16844    0.17741    1.000
