# CIF file generated by openbabel 3.1.0, see https://openbabel.org
data_I
_chemical_name_common 'image0'
_cell_length_a 27.8114
_cell_length_b 27.8114
_cell_length_c 3.6899
_cell_angle_alpha 90
_cell_angle_beta 90
_cell_angle_gamma 90
_space_group_name_H-M_alt 'P 1'
_space_group_name_Hall 'P 1'
loop_
    _symmetry_equiv_pos_as_xyz
    x,y,z
loop_
    _atom_site_label
    _atom_site_type_symbol
    _atom_site_fract_x
    _atom_site_fract_y
    _atom_site_fract_z
    _atom_site_occupancy
    Zn1      Zn       0.28362    0.21399    0.86440    1.000
    N1       N        0.25990    0.14500    0.80400    1.000
    C1       C        0.28010    0.10800    0.95800    1.000
    H1       H        0.31000    0.10940    0.07170    1.000
    N2       N        0.25330    0.06730    0.93800    1.000
    C2       C        0.21450    0.12920    0.66210    1.000
    O1       O        0.27620    0.85870    0.60000    1.000
    C3       C        0.17830    0.15270    0.47600    1.000
    H2       H        0.18110    0.18520    0.42030    1.000
    O2       O        0.34200    0.86600    0.28300    1.000
    C4       C        0.13790    0.12690    0.37400    1.000
    C5       C        0.10120    0.14900    0.18400    1.000
    H3       H        0.10410    0.18140    0.12570    1.000
    C6       C        0.06010    0.12440    0.07700    1.000
    H4       H        0.03550    0.13960    0.95030    1.000
    C7       C        0.05770    0.07590    0.17000    1.000
    H5       H        0.03070    0.05820    0.10370    1.000
    C8       C        0.09450    0.05340    0.35900    1.000
    H6       H        0.09180    0.02090    0.41400    1.000
    C9       C        0.13550    0.07860    0.46670    1.000
    C10      C        0.17140    0.05450    0.65200    1.000
    H7       H        0.16880    0.02190    0.70430    1.000
    C11      C        0.21150    0.08070    0.75800    1.000
    C12      C        0.24510    0.94460    0.30500    1.000
    H8       H        0.22170    0.92330    0.38720    1.000
    C13      C        0.29320    0.93110    0.30600    1.000
    C14      C        0.32810    0.96300    0.18400    1.000
    H9       H        0.36030    0.95390    0.18420    1.000
    C15      C        0.31500    0.00840    0.06100    1.000
    H10      H        0.33830    0.02970    0.97930    1.000
    C16      C        0.26680    0.02190    0.06050    1.000
    C17      C        0.23190    0.99000    0.18300    1.000
    H11      H        0.19970    0.99910    0.18230    1.000
    C18      C        0.30260    0.88080    0.44600    1.000
    O3       O        0.28570    0.24660    0.38100    1.000
    H12      H        0.30850    0.23450    0.25820    1.000
    O4       O        0.34410    0.87650    0.61200    1.000
    Zn2      Zn       0.71638    0.78601    0.86440    1.000
    N3       N        0.74010    0.85500    0.80400    1.000
    C19      C        0.71990    0.89200    0.95800    1.000
    H13      H        0.69000    0.89060    0.07170    1.000
    N4       N        0.74670    0.93270    0.93800    1.000
    C20      C        0.78550    0.87080    0.66210    1.000
    O5       O        0.72380    0.14130    0.60000    1.000
    C21      C        0.82170    0.84730    0.47600    1.000
    H14      H        0.81890    0.81480    0.42030    1.000
    O6       O        0.65800    0.13400    0.28300    1.000
    C22      C        0.86210    0.87310    0.37400    1.000
    C23      C        0.89880    0.85100    0.18400    1.000
    H15      H        0.89590    0.81860    0.12570    1.000
    C24      C        0.93990    0.87560    0.07700    1.000
    H16      H        0.96450    0.86040    0.95030    1.000
    C25      C        0.94230    0.92410    0.17000    1.000
    H17      H        0.96930    0.94180    0.10370    1.000
    C26      C        0.90550    0.94660    0.35900    1.000
    H18      H        0.90820    0.97910    0.41400    1.000
    C27      C        0.86450    0.92140    0.46670    1.000
    C28      C        0.82860    0.94550    0.65200    1.000
    H19      H        0.83120    0.97810    0.70430    1.000
    C29      C        0.78850    0.91930    0.75800    1.000
    C30      C        0.75490    0.05540    0.30500    1.000
    H20      H        0.77830    0.07670    0.38720    1.000
    C31      C        0.70680    0.06890    0.30600    1.000
    C32      C        0.67190    0.03700    0.18400    1.000
    H21      H        0.63970    0.04610    0.18420    1.000
    C33      C        0.68500    0.99160    0.06100    1.000
    H22      H        0.66170    0.97030    0.97930    1.000
    C34      C        0.73320    0.97810    0.06050    1.000
    C35      C        0.76810    0.01000    0.18300    1.000
    H23      H        0.80030    0.00090    0.18230    1.000
    C36      C        0.69740    0.11920    0.44600    1.000
    O7       O        0.71430    0.75340    0.38100    1.000
    H24      H        0.69150    0.76550    0.25820    1.000
    O8       O        0.65590    0.12350    0.61200    1.000
    Zn3      Zn       0.71399    0.21638    0.63560    1.000
    N5       N        0.64500    0.24010    0.69600    1.000
    C37      C        0.60800    0.21990    0.54200    1.000
    H25      H        0.60940    0.19000    0.42830    1.000
    N6       N        0.56730    0.24670    0.56200    1.000
    C38      C        0.62920    0.28550    0.83790    1.000
    O9       O        0.35870    0.22380    0.90000    1.000
    C39      C        0.65270    0.32170    0.02400    1.000
    H26      H        0.68520    0.31890    0.07970    1.000
    O10      O        0.36600    0.15800    0.21700    1.000
    C40      C        0.62690    0.36210    0.12600    1.000
    C41      C        0.64900    0.39880    0.31600    1.000
    H27      H        0.68140    0.39590    0.37430    1.000
    C42      C        0.62440    0.43990    0.42300    1.000
    H28      H        0.63960    0.46450    0.54970    1.000
    C43      C        0.57590    0.44230    0.33000    1.000
    H29      H        0.55820    0.46930    0.39630    1.000
    C44      C        0.55340    0.40550    0.14100    1.000
    H30      H        0.52090    0.40820    0.08600    1.000
    C45      C        0.57860    0.36450    0.03330    1.000
    C46      C        0.55450    0.32860    0.84800    1.000
    H31      H        0.52190    0.33120    0.79570    1.000
    C47      C        0.58070    0.28850    0.74200    1.000
    C48      C        0.44460    0.25490    0.19500    1.000
    H32      H        0.42330    0.27830    0.11280    1.000
    C49      C        0.43110    0.20680    0.19400    1.000
    C50      C        0.46300    0.17190    0.31600    1.000
    H33      H        0.45390    0.13970    0.31580    1.000
    C51      C        0.50840    0.18500    0.43900    1.000
    H34      H        0.52970    0.16170    0.52070    1.000
    C52      C        0.52190    0.23320    0.43950    1.000
    C53      C        0.49000    0.26810    0.31700    1.000
    H35      H        0.49910    0.30030    0.31770    1.000
    C54      C        0.38080    0.19740    0.05400    1.000
    O11      O        0.74660    0.21430    0.11900    1.000
    H36      H        0.73450    0.19150    0.24180    1.000
    O12      O        0.37650    0.15590    0.88800    1.000
    Zn4      Zn       0.28601    0.78362    0.63560    1.000
    N7       N        0.35500    0.75990    0.69600    1.000
    C55      C        0.39200    0.78010    0.54200    1.000
    H37      H        0.39060    0.81000    0.42830    1.000
    N8       N        0.43270    0.75330    0.56200    1.000
    C56      C        0.37080    0.71450    0.83790    1.000
    O13      O        0.64130    0.77620    0.90000    1.000
    C57      C        0.34730    0.67830    0.02400    1.000
    H38      H        0.31480    0.68110    0.07970    1.000
    O14      O        0.63400    0.84200    0.21700    1.000
    C58      C        0.37310    0.63790    0.12600    1.000
    C59      C        0.35100    0.60120    0.31600    1.000
    H39      H        0.31860    0.60410    0.37430    1.000
    C60      C        0.37560    0.56010    0.42300    1.000
    H40      H        0.36040    0.53550    0.54970    1.000
    C61      C        0.42410    0.55770    0.33000    1.000
    H41      H        0.44180    0.53070    0.39630    1.000
    C62      C        0.44660    0.59450    0.14100    1.000
    H42      H        0.47910    0.59180    0.08600    1.000
    C63      C        0.42140    0.63550    0.03330    1.000
    C64      C        0.44550    0.67140    0.84800    1.000
    H43      H        0.47810    0.66880    0.79570    1.000
    C65      C        0.41930    0.71150    0.74200    1.000
    C66      C        0.55540    0.74510    0.19500    1.000
    H44      H        0.57670    0.72170    0.11280    1.000
    C67      C        0.56890    0.79320    0.19400    1.000
    C68      C        0.53700    0.82810    0.31600    1.000
    H45      H        0.54610    0.86030    0.31580    1.000
    C69      C        0.49160    0.81500    0.43900    1.000
    H46      H        0.47030    0.83830    0.52070    1.000
    C70      C        0.47810    0.76680    0.43950    1.000
    C71      C        0.51000    0.73190    0.31700    1.000
    H47      H        0.50090    0.69970    0.31770    1.000
    C72      C        0.61920    0.80260    0.05400    1.000
    O15      O        0.25340    0.78570    0.11900    1.000
    H48      H        0.26550    0.80850    0.24180    1.000
    O16      O        0.62350    0.84410    0.88800    1.000
    Zn5      Zn       0.78362    0.71399    0.36440    1.000
    N9       N        0.75990    0.64500    0.30400    1.000
    C73      C        0.78010    0.60800    0.45800    1.000
    H49      H        0.81000    0.60940    0.57170    1.000
    N10      N        0.75330    0.56730    0.43800    1.000
    C74      C        0.71450    0.62920    0.16210    1.000
    O17      O        0.77620    0.35870    0.10000    1.000
    C75      C        0.67830    0.65270    0.97600    1.000
    H50      H        0.68110    0.68520    0.92030    1.000
    O18      O        0.84200    0.36600    0.78300    1.000
    C76      C        0.63790    0.62690    0.87400    1.000
    C77      C        0.60120    0.64900    0.68400    1.000
    H51      H        0.60410    0.68140    0.62570    1.000
    C78      C        0.56010    0.62440    0.57700    1.000
    H52      H        0.53550    0.63960    0.45030    1.000
    C79      C        0.55770    0.57590    0.67000    1.000
    H53      H        0.53070    0.55820    0.60370    1.000
    C80      C        0.59450    0.55340    0.85900    1.000
    H54      H        0.59180    0.52090    0.91400    1.000
    C81      C        0.63550    0.57860    0.96670    1.000
    C82      C        0.67140    0.55450    0.15200    1.000
    H55      H        0.66880    0.52190    0.20430    1.000
    C83      C        0.71150    0.58070    0.25800    1.000
    C84      C        0.74510    0.44460    0.80500    1.000
    H56      H        0.72170    0.42330    0.88720    1.000
    C85      C        0.79320    0.43110    0.80600    1.000
    C86      C        0.82810    0.46300    0.68400    1.000
    H57      H        0.86030    0.45390    0.68420    1.000
    C87      C        0.81500    0.50840    0.56100    1.000
    H58      H        0.83830    0.52970    0.47930    1.000
    C88      C        0.76680    0.52190    0.56050    1.000
    C89      C        0.73190    0.49000    0.68300    1.000
    H59      H        0.69970    0.49910    0.68230    1.000
    C90      C        0.80260    0.38080    0.94600    1.000
    O19      O        0.78570    0.74660    0.88100    1.000
    H60      H        0.80850    0.73450    0.75820    1.000
    O20      O        0.84410    0.37650    0.11200    1.000
    Zn6      Zn       0.21638    0.28601    0.36440    1.000
    N11      N        0.24010    0.35500    0.30400    1.000
    C91      C        0.21990    0.39200    0.45800    1.000
    H61      H        0.19000    0.39060    0.57170    1.000
    N12      N        0.24670    0.43270    0.43800    1.000
    C92      C        0.28550    0.37080    0.16210    1.000
    O21      O        0.22380    0.64130    0.10000    1.000
    C93      C        0.32170    0.34730    0.97600    1.000
    H62      H        0.31890    0.31480    0.92030    1.000
    O22      O        0.15800    0.63400    0.78300    1.000
    C94      C        0.36210    0.37310    0.87400    1.000
    C95      C        0.39880    0.35100    0.68400    1.000
    H63      H        0.39590    0.31860    0.62570    1.000
    C96      C        0.43990    0.37560    0.57700    1.000
    H64      H        0.46450    0.36040    0.45030    1.000
    C97      C        0.44230    0.42410    0.67000    1.000
    H65      H        0.46930    0.44180    0.60370    1.000
    C98      C        0.40550    0.44660    0.85900    1.000
    H66      H        0.40820    0.47910    0.91400    1.000
    C99      C        0.36450    0.42140    0.96670    1.000
    C100     C        0.32860    0.44550    0.15200    1.000
    H67      H        0.33120    0.47810    0.20430    1.000
    C101     C        0.28850    0.41930    0.25800    1.000
    C102     C        0.25490    0.55540    0.80500    1.000
    H68      H        0.27830    0.57670    0.88720    1.000
    C103     C        0.20680    0.56890    0.80600    1.000
    C104     C        0.17190    0.53700    0.68400    1.000
    H69      H        0.13970    0.54610    0.68420    1.000
    C105     C        0.18500    0.49160    0.56100    1.000
    H70      H        0.16170    0.47030    0.47930    1.000
    C106     C        0.23320    0.47810    0.56050    1.000
    C107     C        0.26810    0.51000    0.68300    1.000
    H71      H        0.30030    0.50090    0.68230    1.000
    C108     C        0.19740    0.61920    0.94600    1.000
    O23      O        0.21430    0.25340    0.88100    1.000
    H72      H        0.19150    0.26550    0.75820    1.000
    O24      O        0.15590    0.62350    0.11200    1.000
    Zn7      Zn       0.21399    0.71638    0.13560    1.000
    N13      N        0.14500    0.74010    0.19600    1.000
    C109     C        0.10800    0.71990    0.04200    1.000
    H73      H        0.10940    0.69000    0.92830    1.000
    N14      N        0.06730    0.74670    0.06200    1.000
    C110     C        0.12920    0.78550    0.33790    1.000
    O25      O        0.85870    0.72380    0.40000    1.000
    C111     C        0.15270    0.82170    0.52400    1.000
    H74      H        0.18520    0.81890    0.57970    1.000
    O26      O        0.86600    0.65800    0.71700    1.000
    C112     C        0.12690    0.86210    0.62600    1.000
    C113     C        0.14900    0.89880    0.81600    1.000
    H75      H        0.18140    0.89590    0.87430    1.000
    C114     C        0.12440    0.93990    0.92300    1.000
    H76      H        0.13960    0.96450    0.04970    1.000
    C115     C        0.07590    0.94230    0.83000    1.000
    H77      H        0.05820    0.96930    0.89630    1.000
    C116     C        0.05340    0.90550    0.64100    1.000
    H78      H        0.02090    0.90820    0.58600    1.000
    C117     C        0.07860    0.86450    0.53330    1.000
    C118     C        0.05450    0.82860    0.34800    1.000
    H79      H        0.02190    0.83120    0.29570    1.000
    C119     C        0.08070    0.78850    0.24200    1.000
    C120     C        0.94460    0.75490    0.69500    1.000
    H80      H        0.92330    0.77830    0.61280    1.000
    C121     C        0.93110    0.70680    0.69400    1.000
    C122     C        0.96300    0.67190    0.81600    1.000
    H81      H        0.95390    0.63970    0.81580    1.000
    C123     C        0.00840    0.68500    0.93900    1.000
    H82      H        0.02970    0.66170    0.02070    1.000
    C124     C        0.02190    0.73320    0.93950    1.000
    C125     C        0.99000    0.76810    0.81700    1.000
    H83      H        0.99910    0.80030    0.81770    1.000
    C126     C        0.88080    0.69740    0.55400    1.000
    O27      O        0.24660    0.71430    0.61900    1.000
    H84      H        0.23450    0.69150    0.74180    1.000
    O28      O        0.87650    0.65590    0.38800    1.000
    Zn8      Zn       0.78601    0.28362    0.13560    1.000
    N15      N        0.85500    0.25990    0.19600    1.000
    C127     C        0.89200    0.28010    0.04200    1.000
    H85      H        0.89060    0.31000    0.92830    1.000
    N16      N        0.93270    0.25330    0.06200    1.000
    C128     C        0.87080    0.21450    0.33790    1.000
    O29      O        0.14130    0.27620    0.40000    1.000
    C129     C        0.84730    0.17830    0.52400    1.000
    H86      H        0.81480    0.18110    0.57970    1.000
    O30      O        0.13400    0.34200    0.71700    1.000
    C130     C        0.87310    0.13790    0.62600    1.000
    C131     C        0.85100    0.10120    0.81600    1.000
    H87      H        0.81860    0.10410    0.87430    1.000
    C132     C        0.87560    0.06010    0.92300    1.000
    H88      H        0.86040    0.03550    0.04970    1.000
    C133     C        0.92410    0.05770    0.83000    1.000
    H89      H        0.94180    0.03070    0.89630    1.000
    C134     C        0.94660    0.09450    0.64100    1.000
    H90      H        0.97910    0.09180    0.58600    1.000
    C135     C        0.92140    0.13550    0.53330    1.000
    C136     C        0.94550    0.17140    0.34800    1.000
    H91      H        0.97810    0.16880    0.29570    1.000
    C137     C        0.91930    0.21150    0.24200    1.000
    C138     C        0.05540    0.24510    0.69500    1.000
    H92      H        0.07670    0.22170    0.61280    1.000
    C139     C        0.06890    0.29320    0.69400    1.000
    C140     C        0.03700    0.32810    0.81600    1.000
    H93      H        0.04610    0.36030    0.81580    1.000
    C141     C        0.99160    0.31500    0.93900    1.000
    H94      H        0.97030    0.33830    0.02070    1.000
    C142     C        0.97810    0.26680    0.93950    1.000
    C143     C        0.01000    0.23190    0.81700    1.000
    H95      H        0.00090    0.19970    0.81770    1.000
    C144     C        0.11920    0.30260    0.55400    1.000
    O31      O        0.75340    0.28570    0.61900    1.000
    H96      H        0.76550    0.30850    0.74180    1.000
    O32      O        0.12350    0.34410    0.38800    1.000
