# CIF file generated by openbabel 3.1.0, see https://openbabel.org
data_I
_chemical_name_common 'image0'
_cell_length_a 13.0923
_cell_length_b 14.2717
_cell_length_c 14.2197
_cell_angle_alpha 90
_cell_angle_beta 90.308
_cell_angle_gamma 90
_space_group_name_H-M_alt 'P 1'
_space_group_name_Hall 'P 1'
loop_
    _symmetry_equiv_pos_as_xyz
    x,y,z
loop_
    _atom_site_label
    _atom_site_type_symbol
    _atom_site_fract_x
    _atom_site_fract_y
    _atom_site_fract_z
    _atom_site_occupancy
    Zn1      Zn       0.75723    0.53094    0.66994    1.000
    Zn2      Zn       0.54230    0.02430    0.16801    1.000
    Zn3      Zn       0.58391    0.98582    0.92037    1.000
    Zn4      Zn       0.66793    0.62427    0.07923    1.000
    Zn5      Zn       0.64804    0.87753    0.51074    1.000
    Zn6      Zn       0.47820    0.48421    0.52262    1.000
    Zn7      Zn       0.66739    0.13159    0.53930    1.000
    Zn8      Zn       0.80757    0.49608    0.42315    1.000
    Zn9      Zn       0.86295    0.98799    0.07041    1.000
    Zn10     Zn       0.69539    0.37248    0.04693    1.000
    Zn11     Zn       0.87080    0.95620    0.30190    1.000
    Zn12     Zn       0.62450    0.57150    0.29280    1.000
    Zn13     Zn       0.70970    0.91620    0.29870    1.000
    Zn14     Zn       0.48170    0.50400    0.29050    1.000
    P1       P        0.86030    0.99750    0.51190    1.000
    P2       P        0.69230    0.14210    0.04650    1.000
    P3       P        0.98200    0.52360    0.57520    1.000
    P4       P        0.67170    0.36020    0.54820    1.000
    P5       P        0.64960    0.64520    0.50260    1.000
    P6       P        0.66890    0.85560    0.08850    1.000
    P7       P        0.82350    0.49880    0.19320    1.000
    P8       P        0.77120    0.53120    0.90230    1.000
    P9       P        0.52090    0.02750    0.39720    1.000
    P10      P        0.56700    0.98420    0.68690    1.000
    O1       O        0.90340    0.53070    0.65270    1.000
    O2       O        0.67840    0.42320    0.63470    1.000
    O3       O        0.73700    0.55280    0.80270    1.000
    O4       O        0.71450    0.63640    0.59010    1.000
    O5       O        0.63060    0.91800    0.16980    1.000
    O6       O        0.59820    0.13860    0.11050    1.000
    O7       O        0.49240    0.04560    0.29340    1.000
    O8       O        0.91450    0.00640    0.60380    1.000
    O9       O        0.61060    0.87700    0.99740    1.000
    O10      O        0.67550    0.08720    0.95280    1.000
    O11      O        0.93730    0.98540    0.43060    1.000
    O12      O        0.59710    0.95800    0.78820    1.000
    O13      O        0.73720    0.61200    0.96550    1.000
    O14      O        0.64520    0.75290    0.11570    1.000
    O15      O        0.03250    0.42660    0.57890    1.000
    O16      O        0.73200    0.56920    0.19160    1.000
    O17      O        0.59940    0.94720    0.40120    1.000
    O18      O        0.79270    0.91110    0.50990    1.000
    O19      O        0.57170    0.89820    0.62420    1.000
    O20      O        0.64510    0.74820    0.47020    1.000
    O21      O        0.56750    0.37760    0.49690    1.000
    O22      O        0.91520    0.54050    0.14440    1.000
    O23      O        0.54130    0.60900    0.51850    1.000
    O24      O        0.89040    0.52360    0.90860    1.000
    O25      O        0.68030    0.25780    0.57860    1.000
    O26      O        0.79930    0.08780    0.49230    1.000
    O27      O        0.64250    0.05930    0.65400    1.000
    O28      O        0.56640    0.11770    0.44040    1.000
    O29      O        0.93140    0.54030    0.47830    1.000
    O30      O        0.76260    0.37990    0.48210    1.000
    O31      O        0.69740    0.58920    0.41900    1.000
    O32      O        0.85270    0.47930    0.29450    1.000
    O33      O        0.78280    0.10000    0.10040    1.000
    O34      O        0.42470    0.99940    0.45010    1.000
    O35      O        0.78520    0.86910    0.07640    1.000
    O36      O        0.45730    0.01990    0.68390    1.000
    O37      O        0.72190    0.43920    0.93180    1.000
    O38      O        0.05920    0.60180    0.59370    1.000
    O39      O        0.78980    0.40730    0.14720    1.000
    O40      O        0.71830    0.24220    0.02170    1.000
    O41      O        0.76640    0.04550    0.28960    1.000
    O42      O        0.57980    0.43430    0.29680    1.000
    C1       C        0.37050    0.76220    0.32740    1.000
    C2       C        0.42160    0.68190    0.28630    1.000
    N1       N        0.05360    0.59590    0.30430    1.000
    N2       N        0.30330    0.92620    0.28630    1.000
    C3       C        0.07660    0.69340    0.30620    1.000
    C4       C        0.89160    0.75210    0.33620    1.000
    C5       C        0.93450    0.74810    0.26110    1.000
    C6       C        0.98750    0.74640    0.34110    1.000
    C7       C        0.34840    0.82240    0.26060    1.000
    N3       N        0.81460    0.81700    0.29720    1.000
    N4       N        0.54410    0.69360    0.28280    1.000
    N5       N        0.49880    0.65640    0.29050    1.000
    Zn15     Zn       0.25723    0.46906    0.16994    1.000
    Zn16     Zn       0.04230    0.97570    0.66801    1.000
    Zn17     Zn       0.08391    0.01418    0.42037    1.000
    Zn18     Zn       0.16793    0.37573    0.57923    1.000
    Zn19     Zn       0.14804    0.12247    0.01074    1.000
    Zn20     Zn       0.97820    0.51579    0.02262    1.000
    Zn21     Zn       0.16739    0.86841    0.03930    1.000
    Zn22     Zn       0.30757    0.50392    0.92315    1.000
    Zn23     Zn       0.36295    0.01201    0.57041    1.000
    Zn24     Zn       0.19539    0.62752    0.54693    1.000
    Zn25     Zn       0.37080    0.04380    0.80190    1.000
    Zn26     Zn       0.12450    0.42850    0.79280    1.000
    Zn27     Zn       0.20970    0.08380    0.79870    1.000
    Zn28     Zn       0.98170    0.49600    0.79050    1.000
    P11      P        0.36030    0.00250    0.01190    1.000
    P12      P        0.19230    0.85790    0.54650    1.000
    P13      P        0.48200    0.47640    0.07520    1.000
    P14      P        0.17170    0.63980    0.04820    1.000
    P15      P        0.14960    0.35480    0.00260    1.000
    P16      P        0.16890    0.14440    0.58850    1.000
    P17      P        0.32350    0.50120    0.69320    1.000
    P18      P        0.27120    0.46880    0.40230    1.000
    P19      P        0.02090    0.97250    0.89720    1.000
    P20      P        0.06700    0.01580    0.18690    1.000
    O43      O        0.40340    0.46930    0.15270    1.000
    O44      O        0.17840    0.57680    0.13470    1.000
    O45      O        0.23700    0.44720    0.30270    1.000
    O46      O        0.21450    0.36360    0.09010    1.000
    O47      O        0.13060    0.08200    0.66980    1.000
    O48      O        0.09820    0.86140    0.61050    1.000
    O49      O        0.99240    0.95440    0.79340    1.000
    O50      O        0.41450    0.99360    0.10380    1.000
    O51      O        0.11060    0.12300    0.49740    1.000
    O52      O        0.17550    0.91280    0.45280    1.000
    O53      O        0.43730    0.01460    0.93060    1.000
    O54      O        0.09710    0.04200    0.28820    1.000
    O55      O        0.23720    0.38800    0.46550    1.000
    O56      O        0.14520    0.24710    0.61570    1.000
    O57      O        0.53250    0.57340    0.07890    1.000
    O58      O        0.23200    0.43080    0.69160    1.000
    O59      O        0.09940    0.05280    0.90120    1.000
    O60      O        0.29270    0.08890    0.00990    1.000
    O61      O        0.07170    0.10180    0.12420    1.000
    O62      O        0.14510    0.25180    0.97020    1.000
    O63      O        0.06750    0.62240    0.99690    1.000
    O64      O        0.41520    0.45950    0.64440    1.000
    O65      O        0.04130    0.39100    0.01850    1.000
    O66      O        0.39040    0.47640    0.40860    1.000
    O67      O        0.18030    0.74220    0.07860    1.000
    O68      O        0.29930    0.91220    0.99230    1.000
    O69      O        0.14250    0.94070    0.15400    1.000
    O70      O        0.06640    0.88230    0.94040    1.000
    O71      O        0.43140    0.45970    0.97830    1.000
    O72      O        0.26260    0.62010    0.98210    1.000
    O73      O        0.19740    0.41080    0.91900    1.000
    O74      O        0.35270    0.52070    0.79450    1.000
    O75      O        0.28280    0.90000    0.60040    1.000
    O76      O        0.92470    0.00060    0.95010    1.000
    O77      O        0.28520    0.13090    0.57640    1.000
    O78      O        0.95730    0.98010    0.18390    1.000
    O79      O        0.22190    0.56080    0.43180    1.000
    O80      O        0.55920    0.39820    0.09370    1.000
    O81      O        0.28980    0.59270    0.64720    1.000
    O82      O        0.21830    0.75780    0.52170    1.000
    O83      O        0.26640    0.95450    0.78960    1.000
    O84      O        0.07980    0.56570    0.79680    1.000
    C8       C        0.87050    0.23780    0.82740    1.000
    C9       C        0.92160    0.31810    0.78630    1.000
    N6       N        0.55360    0.40410    0.80430    1.000
    N7       N        0.80330    0.07380    0.78630    1.000
    C10      C        0.57660    0.30660    0.80620    1.000
    C11      C        0.39160    0.24790    0.83620    1.000
    C12      C        0.43450    0.25190    0.76110    1.000
    C13      C        0.48750    0.25360    0.84110    1.000
    C14      C        0.84840    0.17760    0.76060    1.000
    N8       N        0.31460    0.18300    0.79720    1.000
    N9       N        0.04410    0.30640    0.78280    1.000
    N10      N        0.99880    0.34360    0.79050    1.000
