# CIF file generated by openbabel 3.1.0, see https://openbabel.org
data_I
_chemical_name_common 'image0'
_cell_length_a 15.199
_cell_length_b 16.958
_cell_length_c 19.932
_cell_angle_alpha 90
_cell_angle_beta 90.927
_cell_angle_gamma 90
_space_group_name_H-M_alt 'P 1'
_space_group_name_Hall 'P 1'
loop_
    _symmetry_equiv_pos_as_xyz
    x,y,z
loop_
    _atom_site_label
    _atom_site_type_symbol
    _atom_site_fract_x
    _atom_site_fract_y
    _atom_site_fract_z
    _atom_site_occupancy
    Na1      Na       0.80380    0.98800    0.49360    1.000
    Na2      Na       0.81260    0.84430    0.62660    1.000
    Na3      Na       0.01690    0.79310    0.70990    1.000
    Na4      Na       0.79650    0.11290    0.35380    1.000
    Na5      Na       0.58480    0.04360    0.41480    1.000
    Na6      Na       0.00470    0.93330    0.57180    1.000
    O1       O        0.73550    0.14100    0.24730    1.000
    O2       O        0.92320    0.62450    0.32570    1.000
    O3       O        0.80320    0.70170    0.38280    1.000
    O4       O        0.78430    0.79910    0.27970    1.000
    O5       O        0.91910    0.72160    0.22180    1.000
    O6       O        0.97180    0.65600    0.44460    1.000
    O7       O        0.12560    0.71380    0.40270    1.000
    O8       O        0.06980    0.68330    0.27660    1.000
    O9       O        0.07390    0.76650    0.15390    1.000
    O10      O        0.11820    0.83650    0.27720    1.000
    O11      O        0.96580    0.87340    0.22110    1.000
    O12      O        0.07670    0.98590    0.26140    1.000
    O13      O        0.06200    0.93020    0.68910    1.000
    O14      O        0.83480    0.94780    0.27540    1.000
    O15      O        0.73450    0.98330    0.38200    1.000
    O16      O        0.69000    0.82700    0.38420    1.000
    O17      O        0.66720    0.71720    0.48500    1.000
    O18      O        0.74310    0.86080    0.51230    1.000
    O19      O        0.96080    0.80080    0.59430    1.000
    O20      O        0.09110    0.72310    0.52950    1.000
    O21      O        0.14700    0.87840    0.53390    1.000
    O22      O        0.16970    0.86400    0.40090    1.000
    O23      O        0.84930    0.73540    0.50640    1.000
    O24      O        0.96220    0.77530    0.33960    1.000
    O25      O        0.99630    0.91860    0.35750    1.000
    O26      O        0.00140    0.82310    0.45620    1.000
    O27      O        0.85620    0.86080    0.40270    1.000
    O28      O        0.14010    0.02100    0.38750    1.000
    O29      O        0.65580    0.15890    0.39670    1.000
    O30      O        0.15480    0.74800    0.66430    1.000
    O31      O        0.88100    0.84900    0.73740    1.000
    O32      O        0.66020    0.03970    0.52180    1.000
    P1       P        0.95392    0.84506    0.39028    1.000
    Ru1      Ru       0.85692    0.59098    0.41301    1.000
    W1       W        0.83697    0.70462    0.29026    1.000
    W2       W        0.04215    0.65224    0.36464    1.000
    W3       W        0.03039    0.78377    0.23231    1.000
    W4       W        0.94902    0.98802    0.25817    1.000
    W5       W        0.74226    0.90390    0.32510    1.000
    W6       W        0.75142    0.77906    0.45896    1.000
    W7       W        0.96609    0.72218    0.53728    1.000
    W8       W        0.15448    0.79956    0.47761    1.000
    W9       W        0.14552    0.93935    0.33296    1.000
    C1       C        0.89320    0.47590    0.45270    1.000
    H1       H        0.94840    0.45490    0.46240    1.000
    C2       C        0.84600    0.52040    0.50270    1.000
    H2       H        0.87030    0.52650    0.54550    1.000
    C3       C        0.76350    0.55240    0.48760    1.000
    H3       H        0.73340    0.58000    0.52040    1.000
    C4       C        0.72820    0.54300    0.42660    1.000
    H4       H        0.67390    0.56610    0.41740    1.000
    C5       C        0.76820    0.50140    0.37400    1.000
    H5       H        0.74250    0.49500    0.33170    1.000
    C6       C        0.85650    0.46720    0.38990    1.000
    H6       H        0.88650    0.43890    0.35750    1.000
    Na7      Na       0.99940    0.01840    0.47830    1.000
    Na8      Na       0.02090    0.79210    0.03720    1.000
    Na9      Na       0.69620    0.48800    0.00640    1.000
    Na10     Na       0.68740    0.34430    0.87340    1.000
    Na11     Na       0.48310    0.29310    0.79010    1.000
    Na12     Na       0.70350    0.61290    0.14620    1.000
    Na13     Na       0.91520    0.54360    0.08520    1.000
    Na14     Na       0.49530    0.43330    0.92820    1.000
    O33      O        0.76450    0.64100    0.25270    1.000
    O34      O        0.57680    0.12450    0.17430    1.000
    O35      O        0.69680    0.20170    0.11720    1.000
    O36      O        0.71570    0.29910    0.22030    1.000
    O37      O        0.58090    0.22160    0.27820    1.000
    O38      O        0.52820    0.15600    0.05540    1.000
    O39      O        0.37440    0.21380    0.09730    1.000
    O40      O        0.43020    0.18330    0.22340    1.000
    O41      O        0.42610    0.26650    0.34610    1.000
    O42      O        0.38180    0.33650    0.22280    1.000
    O43      O        0.53420    0.37340    0.27890    1.000
    O44      O        0.42330    0.48590    0.23860    1.000
    O45      O        0.43800    0.43020    0.81090    1.000
    O46      O        0.66520    0.44780    0.22460    1.000
    O47      O        0.76550    0.48330    0.11800    1.000
    O48      O        0.81000    0.32700    0.11580    1.000
    O49      O        0.83280    0.21720    0.01500    1.000
    O50      O        0.75690    0.36080    0.98770    1.000
    O51      O        0.53920    0.30080    0.90570    1.000
    O52      O        0.40890    0.22310    0.97050    1.000
    O53      O        0.35300    0.37840    0.96610    1.000
    O54      O        0.33030    0.36400    0.09910    1.000
    O55      O        0.65070    0.23540    0.99360    1.000
    O56      O        0.53780    0.27530    0.16040    1.000
    O57      O        0.50370    0.41860    0.14250    1.000
    O58      O        0.49860    0.32310    0.04380    1.000
    O59      O        0.64380    0.36080    0.09730    1.000
    O60      O        0.35990    0.52100    0.11250    1.000
    O61      O        0.84420    0.65890    0.10330    1.000
    O62      O        0.34520    0.24800    0.83570    1.000
    O63      O        0.61900    0.34900    0.76260    1.000
    O64      O        0.83980    0.53970    0.97820    1.000
    P2       P        0.54608    0.34506    0.10972    1.000
    Ru2      Ru       0.64308    0.09098    0.08699    1.000
    W10      W        0.66303    0.20462    0.20974    1.000
    W11      W        0.45785    0.15224    0.13536    1.000
    W12      W        0.46961    0.28377    0.26769    1.000
    W13      W        0.55098    0.48802    0.24183    1.000
    W14      W        0.75774    0.40390    0.17490    1.000
    W15      W        0.74858    0.27906    0.04104    1.000
    W16      W        0.53391    0.22218    0.96272    1.000
    W17      W        0.34552    0.29956    0.02239    1.000
    W18      W        0.35448    0.43935    0.16704    1.000
    C7       C        0.60680    0.97590    0.04730    1.000
    H7       H        0.55160    0.95490    0.03760    1.000
    C8       C        0.65400    0.02040    0.99730    1.000
    H8       H        0.62970    0.02650    0.95450    1.000
    C9       C        0.73650    0.05240    0.01240    1.000
    H9       H        0.76660    0.08000    0.97960    1.000
    C10      C        0.77180    0.04300    0.07340    1.000
    H10      H        0.82610    0.06610    0.08260    1.000
    C11      C        0.73180    0.00140    0.12600    1.000
    H11      H        0.75750    0.99500    0.16830    1.000
    C12      C        0.64350    0.96720    0.11010    1.000
    H12      H        0.61350    0.93890    0.14250    1.000
    Na15     Na       0.50060    0.51840    0.02170    1.000
    Na16     Na       0.47910    0.29210    0.46280    1.000
    Na17     Na       0.19620    0.01200    0.50640    1.000
    Na18     Na       0.18740    0.15570    0.37340    1.000
    Na19     Na       0.98310    0.20690    0.29010    1.000
    Na20     Na       0.20350    0.88710    0.64620    1.000
    Na21     Na       0.41520    0.95640    0.58520    1.000
    Na22     Na       0.99530    0.06670    0.42820    1.000
    O65      O        0.26450    0.85900    0.75270    1.000
    O66      O        0.07680    0.37550    0.67430    1.000
    O67      O        0.19680    0.29830    0.61720    1.000
    O68      O        0.21570    0.20090    0.72030    1.000
    O69      O        0.08090    0.27840    0.77820    1.000
    O70      O        0.02820    0.34400    0.55540    1.000
    O71      O        0.87440    0.28620    0.59730    1.000
    O72      O        0.93020    0.31670    0.72340    1.000
    O73      O        0.92610    0.23350    0.84610    1.000
    O74      O        0.88180    0.16350    0.72280    1.000
    O75      O        0.03420    0.12660    0.77890    1.000
    O76      O        0.92330    0.01410    0.73860    1.000
    O77      O        0.93800    0.06980    0.31090    1.000
    O78      O        0.16520    0.05220    0.72460    1.000
    O79      O        0.26550    0.01670    0.61800    1.000
    O80      O        0.31000    0.17300    0.61580    1.000
    O81      O        0.33280    0.28280    0.51500    1.000
    O82      O        0.25690    0.13920    0.48770    1.000
    O83      O        0.03920    0.19920    0.40570    1.000
    O84      O        0.90890    0.27690    0.47050    1.000
    O85      O        0.85300    0.12160    0.46610    1.000
    O86      O        0.83030    0.13600    0.59910    1.000
    O87      O        0.15070    0.26460    0.49360    1.000
    O88      O        0.03780    0.22470    0.66040    1.000
    O89      O        0.00370    0.08140    0.64250    1.000
    O90      O        0.99860    0.17690    0.54380    1.000
    O91      O        0.14380    0.13920    0.59730    1.000
    O92      O        0.85990    0.97900    0.61250    1.000
    O93      O        0.34420    0.84110    0.60330    1.000
    O94      O        0.84520    0.25200    0.33570    1.000
    O95      O        0.11900    0.15100    0.26260    1.000
    O96      O        0.33980    0.96030    0.47820    1.000
    P3       P        0.04608    0.15494    0.60972    1.000
    Ru3      Ru       0.14308    0.40902    0.58699    1.000
    W19      W        0.16303    0.29538    0.70974    1.000
    W20      W        0.95785    0.34776    0.63536    1.000
    W21      W        0.96961    0.21623    0.76769    1.000
    W22      W        0.05098    0.01198    0.74183    1.000
    W23      W        0.25774    0.09610    0.67490    1.000
    W24      W        0.24858    0.22094    0.54104    1.000
    W25      W        0.03391    0.27782    0.46272    1.000
    W26      W        0.84552    0.20044    0.52239    1.000
    W27      W        0.85448    0.06065    0.66704    1.000
    C13      C        0.10680    0.52410    0.54730    1.000
    H13      H        0.05160    0.54510    0.53760    1.000
    C14      C        0.15400    0.47960    0.49730    1.000
    H14      H        0.12970    0.47350    0.45450    1.000
    C15      C        0.23650    0.44760    0.51240    1.000
    H15      H        0.26660    0.42000    0.47960    1.000
    C16      C        0.27180    0.45700    0.57340    1.000
    H16      H        0.32610    0.43390    0.58260    1.000
    C17      C        0.23180    0.49860    0.62600    1.000
    H17      H        0.25750    0.50500    0.66830    1.000
    C18      C        0.14350    0.53280    0.61010    1.000
    H18      H        0.11350    0.56110    0.64250    1.000
    Na23     Na       0.00060    0.98160    0.52170    1.000
    Na24     Na       0.97910    0.20790    0.96280    1.000
    Na25     Na       0.30380    0.51200    0.99360    1.000
    Na26     Na       0.31260    0.65570    0.12660    1.000
    Na27     Na       0.51690    0.70690    0.20990    1.000
    Na28     Na       0.29650    0.38710    0.85380    1.000
    Na29     Na       0.08480    0.45640    0.91480    1.000
    Na30     Na       0.50470    0.56670    0.07180    1.000
    O97      O        0.23550    0.35900    0.74730    1.000
    O98      O        0.42320    0.87550    0.82570    1.000
    O99      O        0.30320    0.79830    0.88280    1.000
    O100     O        0.28430    0.70090    0.77970    1.000
    O101     O        0.41910    0.77840    0.72180    1.000
    O102     O        0.47180    0.84400    0.94460    1.000
    O103     O        0.62560    0.78620    0.90270    1.000
    O104     O        0.56980    0.81670    0.77660    1.000
    O105     O        0.57390    0.73350    0.65390    1.000
    O106     O        0.61820    0.66350    0.77720    1.000
    O107     O        0.46580    0.62660    0.72110    1.000
    O108     O        0.57670    0.51410    0.76140    1.000
    O109     O        0.56200    0.56980    0.18910    1.000
    O110     O        0.33480    0.55220    0.77540    1.000
    O111     O        0.23450    0.51670    0.88200    1.000
    O112     O        0.19000    0.67300    0.88420    1.000
    O113     O        0.16720    0.78280    0.98500    1.000
    O114     O        0.24310    0.63920    0.01230    1.000
    O115     O        0.46080    0.69920    0.09430    1.000
    O116     O        0.59110    0.77690    0.02950    1.000
    O117     O        0.64700    0.62160    0.03390    1.000
    O118     O        0.66970    0.63600    0.90090    1.000
    O119     O        0.34930    0.76460    0.00640    1.000
    O120     O        0.46220    0.72470    0.83960    1.000
    O121     O        0.49630    0.58140    0.85750    1.000
    O122     O        0.50140    0.67690    0.95620    1.000
    O123     O        0.35620    0.63920    0.90270    1.000
    O124     O        0.64010    0.47900    0.88750    1.000
    O125     O        0.15580    0.34110    0.89670    1.000
    O126     O        0.65480    0.75200    0.16430    1.000
    O127     O        0.38100    0.65100    0.23740    1.000
    O128     O        0.16020    0.46030    0.02180    1.000
    P4       P        0.45392    0.65494    0.89028    1.000
    Ru4      Ru       0.35692    0.90902    0.91301    1.000
    W28      W        0.33697    0.79538    0.79026    1.000
    W29      W        0.54215    0.84776    0.86464    1.000
    W30      W        0.53039    0.71623    0.73231    1.000
    W31      W        0.44902    0.51198    0.75817    1.000
    W32      W        0.24226    0.59610    0.82510    1.000
    W33      W        0.25142    0.72094    0.95896    1.000
    W34      W        0.46609    0.77782    0.03728    1.000
    W35      W        0.65448    0.70044    0.97761    1.000
    W36      W        0.64552    0.56065    0.83296    1.000
    C19      C        0.39320    0.02410    0.95270    1.000
    H19      H        0.44840    0.04510    0.96240    1.000
    C20      C        0.34600    0.97960    0.00270    1.000
    H20      H        0.37030    0.97350    0.04550    1.000
    C21      C        0.26350    0.94760    0.98760    1.000
    H21      H        0.23340    0.92000    0.02040    1.000
    C22      C        0.22820    0.95700    0.92660    1.000
    H22      H        0.17390    0.93390    0.91740    1.000
    C23      C        0.26820    0.99860    0.87400    1.000
    H23      H        0.24250    0.00500    0.83170    1.000
    C24      C        0.35650    0.03280    0.88990    1.000
    H24      H        0.38650    0.06110    0.85750    1.000
    Na31     Na       0.49940    0.48160    0.97830    1.000
    Na32     Na       0.52090    0.70790    0.53720    1.000
