# CIF file generated by openbabel 3.1.0, see https://openbabel.org
data_I
_chemical_name_common 'SADLEQ_clean'
_cell_length_a 10.4278
_cell_length_b 10.4278
_cell_length_c 14.2602
_cell_angle_alpha 90
_cell_angle_beta 90
_cell_angle_gamma 90
_space_group_name_H-M_alt 'P 1'
_space_group_name_Hall 'P 1'
loop_
    _symmetry_equiv_pos_as_xyz
    x,y,z
loop_
    _atom_site_label
    _atom_site_type_symbol
    _atom_site_fract_x
    _atom_site_fract_y
    _atom_site_fract_z
    _atom_site_occupancy
    Nd1      Nd       0.86886    0.13405    0.62473    1.000
    Nd2      Nd       0.13114    0.86595    0.12473    1.000
    Nd3      Nd       0.86595    0.86886    0.87473    1.000
    Nd4      Nd       0.13405    0.13114    0.37473    1.000
    H1       H        0.99400    0.87780    0.50020    1.000
    H2       H        0.08270    0.54740    0.37810    1.000
    H3       H        0.96470    0.55130    0.64350    1.000
    H4       H        0.00600    0.12220    0.00020    1.000
    H5       H        0.91730    0.45260    0.87810    1.000
    H6       H        0.03530    0.44870    0.14350    1.000
    H7       H        0.12220    0.99400    0.75020    1.000
    H8       H        0.45260    0.08270    0.62810    1.000
    H9       H        0.44870    0.96470    0.89350    1.000
    H10      H        0.87780    0.00600    0.25020    1.000
    H11      H        0.54740    0.91730    0.12810    1.000
    H12      H        0.55130    0.03530    0.39350    1.000
    C1       C        0.94390    0.80010    0.67550    1.000
    C2       C        0.97850    0.72920    0.58870    1.000
    C3       C        0.00340    0.78930    0.50370    1.000
    C4       C        0.04070    0.72550    0.42590    1.000
    C5       C        0.05310    0.59260    0.43000    1.000
    C6       C        0.02160    0.52850    0.51060    1.000
    C7       C        0.98520    0.59580    0.58900    1.000
    C8       C        0.07200    0.79580    0.33710    1.000
    C9       C        0.02840    0.37910    0.51310    1.000
    C10      C        0.05610    0.19990    0.17550    1.000
    C11      C        0.02150    0.27080    0.08870    1.000
    C12      C        0.99660    0.21070    0.00370    1.000
    C13      C        0.95930    0.27450    0.92590    1.000
    C14      C        0.94690    0.40740    0.93000    1.000
    C15      C        0.97840    0.47150    0.01060    1.000
    C16      C        0.01480    0.40420    0.08900    1.000
    C17      C        0.92800    0.20420    0.83710    1.000
    C18      C        0.97160    0.62090    0.01310    1.000
    C19      C        0.19990    0.94390    0.92550    1.000
    C20      C        0.27080    0.97850    0.83870    1.000
    C21      C        0.21070    0.00340    0.75370    1.000
    C22      C        0.27450    0.04070    0.67590    1.000
    C23      C        0.40740    0.05310    0.68000    1.000
    C24      C        0.47150    0.02160    0.76060    1.000
    C25      C        0.40420    0.98520    0.83900    1.000
    C26      C        0.20420    0.07200    0.58710    1.000
    C27      C        0.62090    0.02840    0.76310    1.000
    C28      C        0.80010    0.05610    0.42550    1.000
    C29      C        0.72920    0.02150    0.33870    1.000
    C30      C        0.78930    0.99660    0.25370    1.000
    C31      C        0.72550    0.95930    0.17590    1.000
    C32      C        0.59260    0.94690    0.18000    1.000
    C33      C        0.52850    0.97840    0.26060    1.000
    C34      C        0.59580    0.01480    0.33900    1.000
    C35      C        0.79580    0.92800    0.08710    1.000
    C36      C        0.37910    0.97160    0.26310    1.000
    O1       O        0.89860    0.90940    0.67260    1.000
    O2       O        0.95980    0.74150    0.75210    1.000
    O3       O        0.07570    0.91750    0.33710    1.000
    O4       O        0.09510    0.73200    0.26430    1.000
    O5       O        0.08860    0.32680    0.44940    1.000
    O6       O        0.97200    0.32700    0.57920    1.000
    O7       O        0.10140    0.09060    0.17260    1.000
    O8       O        0.04020    0.25850    0.25210    1.000
    O9       O        0.92430    0.08250    0.83710    1.000
    O10      O        0.90490    0.26800    0.76430    1.000
    O11      O        0.91140    0.67320    0.94940    1.000
    O12      O        0.02800    0.67300    0.07920    1.000
    O13      O        0.09060    0.89860    0.92260    1.000
    O14      O        0.25850    0.95980    0.00210    1.000
    O15      O        0.08250    0.07570    0.58710    1.000
    O16      O        0.26800    0.09510    0.51430    1.000
    O17      O        0.67320    0.08860    0.69940    1.000
    O18      O        0.67300    0.97200    0.82920    1.000
    O19      O        0.90940    0.10140    0.42260    1.000
    O20      O        0.74150    0.04020    0.50210    1.000
    O21      O        0.91750    0.92430    0.08710    1.000
    O22      O        0.73200    0.90490    0.01430    1.000
    O23      O        0.32680    0.91140    0.19940    1.000
    O24      O        0.32700    0.02800    0.32920    1.000
