# CIF file generated by openbabel 3.1.0, see https://openbabel.org
data_I
_chemical_name_common 'image0'
_cell_length_a 9.3195
_cell_length_b 14.2603
_cell_length_c 18.4982
_cell_angle_alpha 105.307
_cell_angle_beta 99.077
_cell_angle_gamma 95.406
_space_group_name_H-M_alt 'P 1'
_space_group_name_Hall 'P 1'
loop_
    _symmetry_equiv_pos_as_xyz
    x,y,z
loop_
    _atom_site_label
    _atom_site_type_symbol
    _atom_site_fract_x
    _atom_site_fract_y
    _atom_site_fract_z
    _atom_site_occupancy
    Cd1      Cd       0.95105    0.70657    0.31653    1.000
    Cd2      Cd       0.82297    0.82311    0.73906    1.000
    B1       B        0.30850    0.93820    0.60550    1.000
    O1       O        0.92170    0.89960    0.87780    1.000
    O2       O        0.70290    0.80450    0.84110    1.000
    O3       O        0.00730    0.81160    0.23809    1.000
    O4       O        0.80770    0.70160    0.19646    1.000
    O5       O        0.69180    0.68080    0.67495    1.000
    O6       O        0.77500    0.72210    0.58240    1.000
    N1       N        0.22690    0.91030    0.66503    1.000
    N2       N        0.04400    0.86950    0.71924    1.000
    N3       N        0.68440    0.92680    0.69889    1.000
    N4       N        0.47460    0.95460    0.63906    1.000
    N5       N        0.27440    0.85730    0.52853    1.000
    N6       N        0.14760    0.76330    0.41640    1.000
    N7       N        0.99880    0.43060    0.15810    1.000
    N8       N        0.03310    0.56940    0.24830    1.000
    N9       N        0.17390    0.17660    0.61875    1.000
    N10      N        0.26000    0.03380    0.59344    1.000
    C1       C        0.08840    0.86520    0.65430    1.000
    C2       C        0.27050    0.94670    0.74360    1.000
    C3       C        0.15910    0.92120    0.77580    1.000
    C4       C        0.54470    0.89490    0.67290    1.000
    C5       C        0.70790    0.01360    0.68170    1.000
    C6       C        0.58020    0.03200    0.64530    1.000
    C7       C        0.15350    0.84070    0.47410    1.000
    C8       C        0.27660    0.72860    0.43440    1.000
    H1       H        0.30620    0.67340    0.40420    1.000
    C9       C        0.35450    0.78510    0.50180    1.000
    C10      C        0.95000    0.51530    0.18390    1.000
    C11      C        0.11810    0.42840    0.20700    1.000
    C12      C        0.13930    0.51370    0.26230    1.000
    C13      C        0.19160    0.09650    0.64030    1.000
    C14      C        0.23240    0.16570    0.55430    1.000
    C15      C        0.28390    0.07950    0.53770    1.000
    C16      C        0.83180    0.83240    0.88900    1.000
    C17      C        0.84380    0.82020    0.96760    1.000
    C18      C        0.95290    0.87500    0.02630    1.000
    C19      C        0.96940    0.85970    0.09750    1.000
    C20      C        0.87760    0.78820    0.11110    1.000
    C21      C        0.76760    0.73390    0.05240    1.000
    C22      C        0.74940    0.74990    0.98110    1.000
    C23      C        0.89870    0.76630    0.18670    1.000
    C24      C        0.69610    0.66770    0.60590    1.000
    C25      C        0.59570    0.57990    0.55100    1.000
    C26      C        0.51580    0.51370    0.57700    1.000
    C27      C        0.57860    0.56590    0.47300    1.000
    H2       H        0.36300    0.98100    0.76800    1.000
    H3       H        0.16300    0.08700    0.68300    1.000
    H4       H        0.50500    0.83600    0.67500    1.000
    H5       H        0.52800    0.51700    0.62600    1.000
    H6       H        0.55500    0.08500    0.62600    1.000
    H7       H        0.02900    0.83400    0.60800    1.000
    H8       H        0.22400    0.20900    0.53000    1.000
    H9       H        0.70900    0.68700    0.06200    1.000
    H10      H        0.08600    0.88000    0.47700    1.000
    H11      H        0.15300    0.93100    0.82200    1.000
    H12      H        0.95100    0.38700    0.11400    1.000
    H13      H        0.32400    0.04800    0.49800    1.000
    H14      H        0.17500    0.38300    0.20300    1.000
    H15      H        0.79500    0.04800    0.69400    1.000
    H16      H        0.04000    0.90000    0.13900    1.000
    H17      H        0.66700    0.70900    0.94200    1.000
    H18      H        0.01400    0.92500    0.01700    1.000
    H19      H        0.44800    0.78500    0.53500    1.000
    H20      H        0.84100    0.53500    0.15800    1.000
    H21      H        0.18500    0.53300    0.31000    1.000
    H22      H        0.63400    0.61100    0.45500    1.000
    O7       O        0.93850    0.85210    0.86420    1.000
    O8       O        0.74800    0.77540    0.83950    1.000
    Cd3      Cd       0.04895    0.29343    0.68348    1.000
    Cd4      Cd       0.17703    0.17689    0.26094    1.000
    B2       B        0.69150    0.06180    0.39450    1.000
    O9       O        0.07830    0.10040    0.12220    1.000
    O10      O        0.29710    0.19550    0.15890    1.000
    O11      O        0.99270    0.18840    0.76191    1.000
    O12      O        0.19230    0.29840    0.80354    1.000
    O13      O        0.30820    0.31920    0.32505    1.000
    O14      O        0.22500    0.27790    0.41760    1.000
    N11      N        0.77310    0.08970    0.33497    1.000
    N12      N        0.95600    0.13050    0.28076    1.000
    N13      N        0.31560    0.07320    0.30111    1.000
    N14      N        0.52540    0.04540    0.36094    1.000
    N15      N        0.72560    0.14270    0.47147    1.000
    N16      N        0.85240    0.23670    0.58360    1.000
    N17      N        0.00120    0.56940    0.84190    1.000
    N18      N        0.96690    0.43060    0.75170    1.000
    N19      N        0.82610    0.82340    0.38125    1.000
    N20      N        0.74000    0.96620    0.40656    1.000
    C28      C        0.91160    0.13480    0.34570    1.000
    C29      C        0.72950    0.05330    0.25640    1.000
    C30      C        0.84090    0.07880    0.22420    1.000
    C31      C        0.45530    0.10510    0.32710    1.000
    C32      C        0.29210    0.98640    0.31830    1.000
    C33      C        0.41980    0.96800    0.35470    1.000
    C34      C        0.84650    0.15930    0.52590    1.000
    C35      C        0.72340    0.27140    0.56560    1.000
    H23      H        0.69380    0.32660    0.59580    1.000
    C36      C        0.64550    0.21490    0.49820    1.000
    C37      C        0.05000    0.48470    0.81610    1.000
    C38      C        0.88190    0.57160    0.79300    1.000
    C39      C        0.86070    0.48630    0.73770    1.000
    C40      C        0.80840    0.90350    0.35970    1.000
    C41      C        0.76760    0.83430    0.44570    1.000
    C42      C        0.71610    0.92050    0.46230    1.000
    C43      C        0.16820    0.16760    0.11100    1.000
    C44      C        0.15620    0.17980    0.03240    1.000
    C45      C        0.04710    0.12500    0.97370    1.000
    C46      C        0.03060    0.14030    0.90250    1.000
    C47      C        0.12240    0.21180    0.88890    1.000
    C48      C        0.23240    0.26610    0.94760    1.000
    C49      C        0.25060    0.25010    0.01890    1.000
    C50      C        0.10130    0.23370    0.81330    1.000
    C51      C        0.30390    0.33230    0.39410    1.000
    C52      C        0.40430    0.42010    0.44900    1.000
    C53      C        0.48420    0.48630    0.42300    1.000
    C54      C        0.42140    0.43410    0.52700    1.000
    H24      H        0.63700    0.01900    0.23200    1.000
    H25      H        0.83700    0.91300    0.31700    1.000
    H26      H        0.49500    0.16400    0.32500    1.000
    H27      H        0.47200    0.48300    0.37400    1.000
    H28      H        0.44500    0.91500    0.37400    1.000
    H29      H        0.97100    0.16600    0.39200    1.000
    H30      H        0.77600    0.79100    0.47000    1.000
    H31      H        0.29100    0.31300    0.93800    1.000
    H32      H        0.91400    0.12000    0.52300    1.000
    H33      H        0.84700    0.06900    0.17800    1.000
    H34      H        0.04900    0.61300    0.88600    1.000
    H35      H        0.67600    0.95200    0.50200    1.000
    H36      H        0.82500    0.61700    0.79700    1.000
    H37      H        0.20500    0.95200    0.30600    1.000
    H38      H        0.96000    0.10000    0.86100    1.000
    H39      H        0.33300    0.29100    0.05800    1.000
    H40      H        0.98600    0.07500    0.98300    1.000
    H41      H        0.55200    0.21500    0.46500    1.000
    H42      H        0.15900    0.46500    0.84200    1.000
    H43      H        0.81500    0.46700    0.69000    1.000
    H44      H        0.36600    0.38900    0.54500    1.000
    O15      O        0.06150    0.14790    0.13580    1.000
    O16      O        0.25200    0.22460    0.16050    1.000
