# CIF file generated by openbabel 3.1.0, see https://openbabel.org
data_I
_chemical_name_common 'KISPOS_ion_b'
_cell_length_a 29.9155
_cell_length_b 29.9155
_cell_length_c 29.9155
_cell_angle_alpha 33.4032
_cell_angle_beta 33.4032
_cell_angle_gamma 33.4032
_space_group_name_H-M_alt 'P 1'
_space_group_name_Hall 'P 1'
loop_
    _symmetry_equiv_pos_as_xyz
    x,y,z
loop_
    _atom_site_label
    _atom_site_type_symbol
    _atom_site_fract_x
    _atom_site_fract_y
    _atom_site_fract_z
    _atom_site_occupancy
    Co1      Co       0.35469    0.27919    0.54249    1.000
    Co2      Co       0.25943    0.24219    0.56150    1.000
    O3       O        0.29815    0.33115    0.48665    1.000
    O5       O        0.17445    0.25945    0.67125    1.000
    O6       O        0.25318    0.24798    0.67848    1.000
    O7       O        0.93478    0.25318    0.07058    1.000
    O8       O        0.07938    0.21068    0.99968    1.000
    C9       C        0.18652    0.24902    0.71152    1.000
    C10      C        0.11457    0.23297    0.80897    1.000
    C11      C        0.03245    0.22775    0.94755    1.000
    C12      C        0.10246    0.24046    0.85916    1.000
    H13      H        0.14120    0.25390    0.83350    1.000
    C14      C        0.01588    0.23188    0.00748    1.000
    C15      C        0.06003    0.20733    0.85003    1.000
    H16      H        0.06940    0.20020    0.81740    1.000
    C17      C        0.99193    0.19243    0.93873    1.000
    H18      H        0.95590    0.17490    0.96610    1.000
    C19      C        0.97775    0.20395    0.98645    1.000
    H20      H        0.93080    0.19550    0.04560    1.000
    O21      O        0.84120    0.46470    0.55040    1.000
    O22      O        0.88232    0.39752    0.63922    1.000
    O23      O        0.23750    0.42970    0.36280    1.000
    O24      O        0.16574    0.34974    0.51134    1.000
    C25      C        0.89536    0.43456    0.56286    1.000
    C26      C        0.98206    0.44446    0.48066    1.000
    C27      C        0.11852    0.42962    0.41652    1.000
    C28      C        0.03936    0.41956    0.49056    1.000
    H29      H        0.02430    0.39550    0.54810    1.000
    C30      C        0.17754    0.40174    0.43134    1.000
    C31      C        0.00402    0.48082    0.39462    1.000
    H32      H        0.96570    0.49860    0.38690    1.000
    C33      C        0.08395    0.49015    0.32015    1.000
    H34      H        0.09910    0.51400    0.26270    1.000
    C35      C        0.14156    0.46426    0.33076    1.000
    H36      H        0.19510    0.47010    0.28080    1.000
    O37      O        0.20536    0.16476    0.63786    1.000
    H38      H        0.22120    0.10620    0.67920    1.000
    H39      H        0.13590    0.19290    0.66490    1.000
    Co45     Co       0.54249    0.35469    0.27919    1.000
    Co46     Co       0.56150    0.25943    0.24219    1.000
    O47      O        0.48665    0.29815    0.33115    1.000
    O49      O        0.67125    0.17445    0.25945    1.000
    O50      O        0.67848    0.25318    0.24798    1.000
    O51      O        0.07058    0.93478    0.25318    1.000
    O52      O        0.99968    0.07938    0.21068    1.000
    C53      C        0.71152    0.18652    0.24902    1.000
    C54      C        0.80897    0.11457    0.23297    1.000
    C55      C        0.94755    0.03245    0.22775    1.000
    C56      C        0.85916    0.10246    0.24046    1.000
    H57      H        0.83350    0.14120    0.25390    1.000
    C58      C        0.00748    0.01588    0.23188    1.000
    C59      C        0.85003    0.06003    0.20733    1.000
    H60      H        0.81740    0.06940    0.20020    1.000
    C61      C        0.93873    0.99193    0.19243    1.000
    H62      H        0.96610    0.95590    0.17490    1.000
    C63      C        0.98645    0.97775    0.20395    1.000
    H64      H        0.04560    0.93080    0.19550    1.000
    O65      O        0.55040    0.84120    0.46470    1.000
    O66      O        0.63922    0.88232    0.39752    1.000
    O67      O        0.36280    0.23750    0.42970    1.000
    O68      O        0.51134    0.16574    0.34974    1.000
    C69      C        0.56286    0.89536    0.43456    1.000
    C70      C        0.48066    0.98206    0.44446    1.000
    C71      C        0.41652    0.11852    0.42962    1.000
    C72      C        0.49056    0.03936    0.41956    1.000
    H73      H        0.54810    0.02430    0.39550    1.000
    C74      C        0.43134    0.17754    0.40174    1.000
    C75      C        0.39462    0.00402    0.48082    1.000
    H76      H        0.38690    0.96570    0.49860    1.000
    C77      C        0.32015    0.08395    0.49015    1.000
    H78      H        0.26270    0.09910    0.51400    1.000
    C79      C        0.33076    0.14156    0.46426    1.000
    H80      H        0.28080    0.19510    0.47010    1.000
    O81      O        0.63786    0.20536    0.16476    1.000
    H82      H        0.67920    0.22120    0.10620    1.000
    H83      H        0.66490    0.13590    0.19290    1.000
    Co89     Co       0.27919    0.54249    0.35469    1.000
    Co90     Co       0.24219    0.56150    0.25943    1.000
    O91      O        0.33115    0.48665    0.29815    1.000
    O93      O        0.25945    0.67125    0.17445    1.000
    O94      O        0.24798    0.67848    0.25318    1.000
    O95      O        0.25318    0.07058    0.93478    1.000
    O96      O        0.21068    0.99968    0.07938    1.000
    C97      C        0.24902    0.71152    0.18652    1.000
    C98      C        0.23297    0.80897    0.11457    1.000
    C99      C        0.22775    0.94755    0.03245    1.000
    C100     C        0.24046    0.85916    0.10246    1.000
    H101     H        0.25390    0.83350    0.14120    1.000
    C102     C        0.23188    0.00748    0.01588    1.000
    C103     C        0.20733    0.85003    0.06003    1.000
    H104     H        0.20020    0.81740    0.06940    1.000
    C105     C        0.19243    0.93873    0.99193    1.000
    H106     H        0.17490    0.96610    0.95590    1.000
    C107     C        0.20395    0.98645    0.97775    1.000
    H108     H        0.19550    0.04560    0.93080    1.000
    O109     O        0.46470    0.55040    0.84120    1.000
    O110     O        0.39752    0.63922    0.88232    1.000
    O111     O        0.42970    0.36280    0.23750    1.000
    O112     O        0.34974    0.51134    0.16574    1.000
    C113     C        0.43456    0.56286    0.89536    1.000
    C114     C        0.44446    0.48066    0.98206    1.000
    C115     C        0.42962    0.41652    0.11852    1.000
    C116     C        0.41956    0.49056    0.03936    1.000
    H117     H        0.39550    0.54810    0.02430    1.000
    C118     C        0.40174    0.43134    0.17754    1.000
    C119     C        0.48082    0.39462    0.00402    1.000
    H120     H        0.49860    0.38690    0.96570    1.000
    C121     C        0.49015    0.32015    0.08395    1.000
    H122     H        0.51400    0.26270    0.09910    1.000
    C123     C        0.46426    0.33076    0.14156    1.000
    H124     H        0.47010    0.28080    0.19510    1.000
    O125     O        0.16476    0.63786    0.20536    1.000
    H126     H        0.10620    0.67920    0.22120    1.000
    H127     H        0.19290    0.66490    0.13590    1.000
    Co133    Co       0.22081    0.14531    0.95751    1.000
    Co134    Co       0.25781    0.24057    0.93850    1.000
    O135     O        0.16885    0.20185    0.01335    1.000
    O137     O        0.24055    0.32555    0.82875    1.000
    O138     O        0.25202    0.24682    0.82152    1.000
    O139     O        0.24682    0.56522    0.42942    1.000
    O140     O        0.28932    0.42062    0.50032    1.000
    C141     C        0.25098    0.31348    0.78848    1.000
    C142     C        0.26703    0.38543    0.69103    1.000
    C143     C        0.27225    0.46755    0.55245    1.000
    C144     C        0.25954    0.39754    0.64084    1.000
    H145     H        0.24610    0.35880    0.66650    1.000
    C146     C        0.26812    0.48412    0.49252    1.000
    C147     C        0.29267    0.43997    0.64997    1.000
    H148     H        0.29980    0.43060    0.68260    1.000
    C149     C        0.30757    0.50807    0.56127    1.000
    H150     H        0.32510    0.54410    0.53390    1.000
    C151     C        0.29605    0.52225    0.51355    1.000
    H152     H        0.30450    0.56920    0.45440    1.000
    O153     O        0.03530    0.65880    0.94960    1.000
    O154     O        0.10248    0.61768    0.86078    1.000
    O155     O        0.07030    0.26250    0.13720    1.000
    O156     O        0.15026    0.33426    0.98866    1.000
    C157     C        0.06544    0.60464    0.93714    1.000
    C158     C        0.05554    0.51794    0.01934    1.000
    C159     C        0.07038    0.38148    0.08348    1.000
    C160     C        0.08044    0.46064    0.00944    1.000
    H161     H        0.10450    0.47570    0.95190    1.000
    C162     C        0.09826    0.32246    0.06866    1.000
    C163     C        0.01918    0.49598    0.10538    1.000
    H164     H        0.00140    0.53430    0.11310    1.000
    C165     C        0.00985    0.41605    0.17985    1.000
    H166     H        0.98600    0.40090    0.23730    1.000
    C167     C        0.03574    0.35844    0.16924    1.000
    H168     H        0.02990    0.30490    0.21920    1.000
    O169     O        0.33524    0.29464    0.86214    1.000
    H170     H        0.39380    0.27880    0.82080    1.000
    H171     H        0.30710    0.36410    0.83510    1.000
    Co177    Co       0.14531    0.95751    0.22081    1.000
    Co178    Co       0.24057    0.93850    0.25781    1.000
    O179     O        0.20185    0.01335    0.16885    1.000
    O181     O        0.32555    0.82875    0.24055    1.000
    O182     O        0.24682    0.82152    0.25202    1.000
    O183     O        0.56522    0.42942    0.24682    1.000
    O184     O        0.42062    0.50032    0.28932    1.000
    C185     C        0.31348    0.78848    0.25098    1.000
    C186     C        0.38543    0.69103    0.26703    1.000
    C187     C        0.46755    0.55245    0.27225    1.000
    C188     C        0.39754    0.64084    0.25954    1.000
    H189     H        0.35880    0.66650    0.24610    1.000
    C190     C        0.48412    0.49252    0.26812    1.000
    C191     C        0.43997    0.64997    0.29267    1.000
    H192     H        0.43060    0.68260    0.29980    1.000
    C193     C        0.50807    0.56127    0.30757    1.000
    H194     H        0.54410    0.53390    0.32510    1.000
    C195     C        0.52225    0.51355    0.29605    1.000
    H196     H        0.56920    0.45440    0.30450    1.000
    O197     O        0.65880    0.94960    0.03530    1.000
    O198     O        0.61768    0.86078    0.10248    1.000
    O199     O        0.26250    0.13720    0.07030    1.000
    O200     O        0.33426    0.98866    0.15026    1.000
    C201     C        0.60464    0.93714    0.06544    1.000
    C202     C        0.51794    0.01934    0.05554    1.000
    C203     C        0.38148    0.08348    0.07038    1.000
    C204     C        0.46064    0.00944    0.08044    1.000
    H205     H        0.47570    0.95190    0.10450    1.000
    C206     C        0.32246    0.06866    0.09826    1.000
    C207     C        0.49598    0.10538    0.01918    1.000
    H208     H        0.53430    0.11310    0.00140    1.000
    C209     C        0.41605    0.17985    0.00985    1.000
    H210     H        0.40090    0.23730    0.98600    1.000
    C211     C        0.35844    0.16924    0.03574    1.000
    H212     H        0.30490    0.21920    0.02990    1.000
    O213     O        0.29464    0.86214    0.33524    1.000
    H214     H        0.27880    0.82080    0.39380    1.000
    H215     H        0.36410    0.83510    0.30710    1.000
    Co221    Co       0.95751    0.22081    0.14531    1.000
    Co222    Co       0.93850    0.25781    0.24057    1.000
    O223     O        0.01335    0.16885    0.20185    1.000
    O225     O        0.82875    0.24055    0.32555    1.000
    O226     O        0.82152    0.25202    0.24682    1.000
    O227     O        0.42942    0.24682    0.56522    1.000
    O228     O        0.50032    0.28932    0.42062    1.000
    C229     C        0.78848    0.25098    0.31348    1.000
    C230     C        0.69103    0.26703    0.38543    1.000
    C231     C        0.55245    0.27225    0.46755    1.000
    C232     C        0.64084    0.25954    0.39754    1.000
    H233     H        0.66650    0.24610    0.35880    1.000
    C234     C        0.49252    0.26812    0.48412    1.000
    C235     C        0.64997    0.29267    0.43997    1.000
    H236     H        0.68260    0.29980    0.43060    1.000
    C237     C        0.56127    0.30757    0.50807    1.000
    H238     H        0.53390    0.32510    0.54410    1.000
    C239     C        0.51355    0.29605    0.52225    1.000
    H240     H        0.45440    0.30450    0.56920    1.000
    O241     O        0.94960    0.03530    0.65880    1.000
    O242     O        0.86078    0.10248    0.61768    1.000
    O243     O        0.13720    0.07030    0.26250    1.000
    O244     O        0.98866    0.15026    0.33426    1.000
    C245     C        0.93714    0.06544    0.60464    1.000
    C246     C        0.01934    0.05554    0.51794    1.000
    C247     C        0.08348    0.07038    0.38148    1.000
    C248     C        0.00944    0.08044    0.46064    1.000
    H249     H        0.95190    0.10450    0.47570    1.000
    C250     C        0.06866    0.09826    0.32246    1.000
    C251     C        0.10538    0.01918    0.49598    1.000
    H252     H        0.11310    0.00140    0.53430    1.000
    C253     C        0.17985    0.00985    0.41605    1.000
    H254     H        0.23730    0.98600    0.40090    1.000
    C255     C        0.16924    0.03574    0.35844    1.000
    H256     H        0.21920    0.02990    0.30490    1.000
    O257     O        0.86214    0.33524    0.29464    1.000
    H258     H        0.82080    0.39380    0.27880    1.000
    H259     H        0.83510    0.30710    0.36410    1.000
    Co265    Co       0.64531    0.72081    0.45751    1.000
    Co266    Co       0.74057    0.75781    0.43850    1.000
    O267     O        0.70185    0.66885    0.51335    1.000
    O269     O        0.82555    0.74055    0.32875    1.000
    O270     O        0.74682    0.75202    0.32152    1.000
    O271     O        0.06522    0.74682    0.92942    1.000
    O272     O        0.92062    0.78932    0.00032    1.000
    C273     C        0.81348    0.75098    0.28848    1.000
    C274     C        0.88543    0.76703    0.19103    1.000
    C275     C        0.96755    0.77225    0.05245    1.000
    C276     C        0.89754    0.75954    0.14084    1.000
    H277     H        0.85880    0.74610    0.16650    1.000
    C278     C        0.98412    0.76812    0.99252    1.000
    C279     C        0.93997    0.79267    0.14997    1.000
    H280     H        0.93060    0.79980    0.18260    1.000
    C281     C        0.00807    0.80757    0.06127    1.000
    H282     H        0.04410    0.82510    0.03390    1.000
    C283     C        0.02225    0.79605    0.01355    1.000
    H284     H        0.06920    0.80450    0.95440    1.000
    O285     O        0.15880    0.53530    0.44960    1.000
    O286     O        0.11768    0.60248    0.36078    1.000
    O287     O        0.76250    0.57030    0.63720    1.000
    O288     O        0.83426    0.65026    0.48866    1.000
    C289     C        0.10464    0.56544    0.43714    1.000
    C290     C        0.01794    0.55554    0.51934    1.000
    C291     C        0.88148    0.57038    0.58348    1.000
    C292     C        0.96064    0.58044    0.50944    1.000
    H293     H        0.97570    0.60450    0.45190    1.000
    C294     C        0.82246    0.59826    0.56866    1.000
    C295     C        0.99598    0.51918    0.60538    1.000
    H296     H        0.03430    0.50140    0.61310    1.000
    C297     C        0.91605    0.50985    0.67985    1.000
    H298     H        0.90090    0.48600    0.73730    1.000
    C299     C        0.85844    0.53574    0.66924    1.000
    H300     H        0.80490    0.52990    0.71920    1.000
    O301     O        0.79464    0.83524    0.36214    1.000
    H302     H        0.77880    0.89380    0.32080    1.000
    H303     H        0.86410    0.80710    0.33510    1.000
    Co309    Co       0.45751    0.64531    0.72081    1.000
    Co310    Co       0.43850    0.74057    0.75781    1.000
    O311     O        0.51335    0.70185    0.66885    1.000
    O313     O        0.32875    0.82555    0.74055    1.000
    O314     O        0.32152    0.74682    0.75202    1.000
    O315     O        0.92942    0.06522    0.74682    1.000
    O316     O        0.00032    0.92062    0.78932    1.000
    C317     C        0.28848    0.81348    0.75098    1.000
    C318     C        0.19103    0.88543    0.76703    1.000
    C319     C        0.05245    0.96755    0.77225    1.000
    C320     C        0.14084    0.89754    0.75954    1.000
    H321     H        0.16650    0.85880    0.74610    1.000
    C322     C        0.99252    0.98412    0.76812    1.000
    C323     C        0.14997    0.93997    0.79267    1.000
    H324     H        0.18260    0.93060    0.79980    1.000
    C325     C        0.06127    0.00807    0.80757    1.000
    H326     H        0.03390    0.04410    0.82510    1.000
    C327     C        0.01355    0.02225    0.79605    1.000
    H328     H        0.95440    0.06920    0.80450    1.000
    O329     O        0.44960    0.15880    0.53530    1.000
    O330     O        0.36078    0.11768    0.60248    1.000
    O331     O        0.63720    0.76250    0.57030    1.000
    O332     O        0.48866    0.83426    0.65026    1.000
    C333     C        0.43714    0.10464    0.56544    1.000
    C334     C        0.51934    0.01794    0.55554    1.000
    C335     C        0.58348    0.88148    0.57038    1.000
    C336     C        0.50944    0.96064    0.58044    1.000
    H337     H        0.45190    0.97570    0.60450    1.000
    C338     C        0.56866    0.82246    0.59826    1.000
    C339     C        0.60538    0.99598    0.51918    1.000
    H340     H        0.61310    0.03430    0.50140    1.000
    C341     C        0.67985    0.91605    0.50985    1.000
    H342     H        0.73730    0.90090    0.48600    1.000
    C343     C        0.66924    0.85844    0.53574    1.000
    H344     H        0.71920    0.80490    0.52990    1.000
    O345     O        0.36214    0.79464    0.83524    1.000
    H346     H        0.32080    0.77880    0.89380    1.000
    H347     H        0.33510    0.86410    0.80710    1.000
    Co353    Co       0.72081    0.45751    0.64531    1.000
    Co354    Co       0.75781    0.43850    0.74057    1.000
    O355     O        0.66885    0.51335    0.70185    1.000
    O357     O        0.74055    0.32875    0.82555    1.000
    O358     O        0.75202    0.32152    0.74682    1.000
    O359     O        0.74682    0.92942    0.06522    1.000
    O360     O        0.78932    0.00032    0.92062    1.000
    C361     C        0.75098    0.28848    0.81348    1.000
    C362     C        0.76703    0.19103    0.88543    1.000
    C363     C        0.77225    0.05245    0.96755    1.000
    C364     C        0.75954    0.14084    0.89754    1.000
    H365     H        0.74610    0.16650    0.85880    1.000
    C366     C        0.76812    0.99252    0.98412    1.000
    C367     C        0.79267    0.14997    0.93997    1.000
    H368     H        0.79980    0.18260    0.93060    1.000
    C369     C        0.80757    0.06127    0.00807    1.000
    H370     H        0.82510    0.03390    0.04410    1.000
    C371     C        0.79605    0.01355    0.02225    1.000
    H372     H        0.80450    0.95440    0.06920    1.000
    O373     O        0.53530    0.44960    0.15880    1.000
    O374     O        0.60248    0.36078    0.11768    1.000
    O375     O        0.57030    0.63720    0.76250    1.000
    O376     O        0.65026    0.48866    0.83426    1.000
    C377     C        0.56544    0.43714    0.10464    1.000
    C378     C        0.55554    0.51934    0.01794    1.000
    C379     C        0.57038    0.58348    0.88148    1.000
    C380     C        0.58044    0.50944    0.96064    1.000
    H381     H        0.60450    0.45190    0.97570    1.000
    C382     C        0.59826    0.56866    0.82246    1.000
    C383     C        0.51918    0.60538    0.99598    1.000
    H384     H        0.50140    0.61310    0.03430    1.000
    C385     C        0.50985    0.67985    0.91605    1.000
    H386     H        0.48600    0.73730    0.90090    1.000
    C387     C        0.53574    0.66924    0.85844    1.000
    H388     H        0.52990    0.71920    0.80490    1.000
    O389     O        0.83524    0.36214    0.79464    1.000
    H390     H        0.89380    0.32080    0.77880    1.000
    H391     H        0.80710    0.33510    0.86410    1.000
    Co397    Co       0.77919    0.85469    0.04249    1.000
    Co398    Co       0.74219    0.75943    0.06150    1.000
    O399     O        0.83115    0.79815    0.98665    1.000
    O401     O        0.75945    0.67445    0.17125    1.000
    O402     O        0.74798    0.75318    0.17848    1.000
    O403     O        0.75318    0.43478    0.57058    1.000
    O404     O        0.71068    0.57938    0.49968    1.000
    C405     C        0.74902    0.68652    0.21152    1.000
    C406     C        0.73297    0.61457    0.30897    1.000
    C407     C        0.72775    0.53245    0.44755    1.000
    C408     C        0.74046    0.60246    0.35916    1.000
    H409     H        0.75390    0.64120    0.33350    1.000
    C410     C        0.73188    0.51588    0.50748    1.000
    C411     C        0.70733    0.56003    0.35003    1.000
    H412     H        0.70020    0.56940    0.31740    1.000
    C413     C        0.69243    0.49193    0.43873    1.000
    H414     H        0.67490    0.45590    0.46610    1.000
    C415     C        0.70395    0.47775    0.48645    1.000
    H416     H        0.69550    0.43080    0.54560    1.000
    O417     O        0.96470    0.34120    0.05040    1.000
    O418     O        0.89752    0.38232    0.13922    1.000
    O419     O        0.92970    0.73750    0.86280    1.000
    O420     O        0.84974    0.66574    0.01134    1.000
    C421     C        0.93456    0.39536    0.06286    1.000
    C422     C        0.94446    0.48206    0.98066    1.000
    C423     C        0.92962    0.61852    0.91652    1.000
    C424     C        0.91956    0.53936    0.99056    1.000
    H425     H        0.89550    0.52430    0.04810    1.000
    C426     C        0.90174    0.67754    0.93134    1.000
    C427     C        0.98082    0.50402    0.89462    1.000
    H428     H        0.99860    0.46570    0.88690    1.000
    C429     C        0.99015    0.58395    0.82015    1.000
    H430     H        0.01400    0.59910    0.76270    1.000
    C431     C        0.96426    0.64156    0.83076    1.000
    H432     H        0.97010    0.69510    0.78080    1.000
    O433     O        0.66476    0.70536    0.13786    1.000
    H434     H        0.60620    0.72120    0.17920    1.000
    H435     H        0.69290    0.63590    0.16490    1.000
    Co441    Co       0.85469    0.04249    0.77919    1.000
    Co442    Co       0.75943    0.06150    0.74219    1.000
    O443     O        0.79815    0.98665    0.83115    1.000
    O445     O        0.67445    0.17125    0.75945    1.000
    O446     O        0.75318    0.17848    0.74798    1.000
    O447     O        0.43478    0.57058    0.75318    1.000
    O448     O        0.57938    0.49968    0.71068    1.000
    C449     C        0.68652    0.21152    0.74902    1.000
    C450     C        0.61457    0.30897    0.73297    1.000
    C451     C        0.53245    0.44755    0.72775    1.000
    C452     C        0.60246    0.35916    0.74046    1.000
    H453     H        0.64120    0.33350    0.75390    1.000
    C454     C        0.51588    0.50748    0.73188    1.000
    C455     C        0.56003    0.35003    0.70733    1.000
    H456     H        0.56940    0.31740    0.70020    1.000
    C457     C        0.49193    0.43873    0.69243    1.000
    H458     H        0.45590    0.46610    0.67490    1.000
    C459     C        0.47775    0.48645    0.70395    1.000
    H460     H        0.43080    0.54560    0.69550    1.000
    O461     O        0.34120    0.05040    0.96470    1.000
    O462     O        0.38232    0.13922    0.89752    1.000
    O463     O        0.73750    0.86280    0.92970    1.000
    O464     O        0.66574    0.01134    0.84974    1.000
    C465     C        0.39536    0.06286    0.93456    1.000
    C466     C        0.48206    0.98066    0.94446    1.000
    C467     C        0.61852    0.91652    0.92962    1.000
    C468     C        0.53936    0.99056    0.91956    1.000
    H469     H        0.52430    0.04810    0.89550    1.000
    C470     C        0.67754    0.93134    0.90174    1.000
    C471     C        0.50402    0.89462    0.98082    1.000
    H472     H        0.46570    0.88690    0.99860    1.000
    C473     C        0.58395    0.82015    0.99015    1.000
    H474     H        0.59910    0.76270    0.01400    1.000
    C475     C        0.64156    0.83076    0.96426    1.000
    H476     H        0.69510    0.78080    0.97010    1.000
    O477     O        0.70536    0.13786    0.66476    1.000
    H478     H        0.72120    0.17920    0.60620    1.000
    H479     H        0.63590    0.16490    0.69290    1.000
    Co485    Co       0.04249    0.77919    0.85469    1.000
    Co486    Co       0.06150    0.74219    0.75943    1.000
    O487     O        0.98665    0.83115    0.79815    1.000
    O489     O        0.17125    0.75945    0.67445    1.000
    O490     O        0.17848    0.74798    0.75318    1.000
    O491     O        0.57058    0.75318    0.43478    1.000
    O492     O        0.49968    0.71068    0.57938    1.000
    C493     C        0.21152    0.74902    0.68652    1.000
    C494     C        0.30897    0.73297    0.61457    1.000
    C495     C        0.44755    0.72775    0.53245    1.000
    C496     C        0.35916    0.74046    0.60246    1.000
    H497     H        0.33350    0.75390    0.64120    1.000
    C498     C        0.50748    0.73188    0.51588    1.000
    C499     C        0.35003    0.70733    0.56003    1.000
    H500     H        0.31740    0.70020    0.56940    1.000
    C501     C        0.43873    0.69243    0.49193    1.000
    H502     H        0.46610    0.67490    0.45590    1.000
    C503     C        0.48645    0.70395    0.47775    1.000
    H504     H        0.54560    0.69550    0.43080    1.000
    O505     O        0.05040    0.96470    0.34120    1.000
    O506     O        0.13922    0.89752    0.38232    1.000
    O507     O        0.86280    0.92970    0.73750    1.000
    O508     O        0.01134    0.84974    0.66574    1.000
    C509     C        0.06286    0.93456    0.39536    1.000
    C510     C        0.98066    0.94446    0.48206    1.000
    C511     C        0.91652    0.92962    0.61852    1.000
    C512     C        0.99056    0.91956    0.53936    1.000
    H513     H        0.04810    0.89550    0.52430    1.000
    C514     C        0.93134    0.90174    0.67754    1.000
    C515     C        0.89462    0.98082    0.50402    1.000
    H516     H        0.88690    0.99860    0.46570    1.000
    C517     C        0.82015    0.99015    0.58395    1.000
    H518     H        0.76270    0.01400    0.59910    1.000
    C519     C        0.83076    0.96426    0.64156    1.000
    H520     H        0.78080    0.97010    0.69510    1.000
    O521     O        0.13786    0.66476    0.70536    1.000
    H522     H        0.17920    0.60620    0.72120    1.000
    H523     H        0.16490    0.69290    0.63590    1.000
    Co529    Co       0.35890    0.35890    0.35890    1.000
    Co530    Co       0.14110    0.14110    0.14110    1.000
    Co531    Co       0.64110    0.64110    0.64110    1.000
    Co532    Co       0.85890    0.85890    0.85890    1.000
    K533     K        0.36185    0.13815    0.75000    1.000
    K534     K        0.75000    0.36185    0.13815    1.000
    K535     K        0.13815    0.75000    0.36185    1.000
    K536     K        0.63815    0.86185    0.25000    1.000
    K537     K        0.25000    0.63815    0.86185    1.000
    K538     K        0.86185    0.25000    0.63815    1.000
