# CIF file generated by openbabel 3.1.0, see https://openbabel.org
data_I
_chemical_name_common 'image0'
_cell_length_a 13.2925
_cell_length_b 13.66
_cell_length_c 9.5631
_cell_angle_alpha 90
_cell_angle_beta 126.84
_cell_angle_gamma 90
_space_group_name_H-M_alt 'P 1'
_space_group_name_Hall 'P 1'
loop_
    _symmetry_equiv_pos_as_xyz
    x,y,z
loop_
    _atom_site_label
    _atom_site_type_symbol
    _atom_site_fract_x
    _atom_site_fract_y
    _atom_site_fract_z
    _atom_site_occupancy
    Zn1      Zn       0.16640    0.35645    0.87010    1.000
    N1       N        0.49410    0.20040    0.20890    1.000
    N2       N        0.31250    0.26820    0.02070    1.000
    N3       N        0.18070    0.46500    0.73820    1.000
    N4       N        0.17630    0.56770    0.56220    1.000
    N5       N        0.26100    0.59830    0.72960    1.000
    N6       N        0.40230    0.13030    0.13690    1.000
    N7       N        0.26290    0.53780    0.83480    1.000
    C1       C        0.03300    0.42320    0.42230    1.000
    H1       H        0.01430    0.36730    0.46390    1.000
    H2       H        0.06520    0.40170    0.36060    1.000
    H3       H        0.95770    0.46060    0.34510    1.000
    C2       C        0.43560    0.28330    0.13230    1.000
    C3       C        0.12770    0.48450    0.57180    1.000
    N8       N        0.29570    0.17070    0.02610    1.000
    C4       C        0.49830    0.38160    0.17200    1.000
    H4       H        0.43590    0.43080    0.10250    1.000
    H5       H        0.55720    0.38020    0.14510    1.000
    H6       H        0.54180    0.39640    0.29360    1.000
    Zn2      Zn       0.66640    0.85645    0.87010    1.000
    N9       N        0.99410    0.70040    0.20890    1.000
    N10      N        0.81250    0.76820    0.02070    1.000
    N11      N        0.68070    0.96500    0.73820    1.000
    N12      N        0.67630    0.06770    0.56220    1.000
    N13      N        0.76100    0.09830    0.72960    1.000
    N14      N        0.90230    0.63030    0.13690    1.000
    N15      N        0.76290    0.03780    0.83480    1.000
    C5       C        0.53300    0.92320    0.42230    1.000
    H7       H        0.51430    0.86730    0.46390    1.000
    H8       H        0.56520    0.90170    0.36060    1.000
    H9       H        0.45770    0.96060    0.34510    1.000
    C6       C        0.93560    0.78330    0.13230    1.000
    C7       C        0.62770    0.98450    0.57180    1.000
    N16      N        0.79570    0.67070    0.02610    1.000
    C8       C        0.99830    0.88160    0.17200    1.000
    H10      H        0.93590    0.93080    0.10250    1.000
    H11      H        0.05720    0.88020    0.14510    1.000
    H12      H        0.04180    0.89640    0.29360    1.000
    Zn3      Zn       0.16640    0.64355    0.37010    1.000
    N17      N        0.49410    0.79960    0.70890    1.000
    N18      N        0.31250    0.73180    0.52070    1.000
    N19      N        0.18070    0.53500    0.23820    1.000
    N20      N        0.17630    0.43230    0.06220    1.000
    N21      N        0.26100    0.40170    0.22960    1.000
    N22      N        0.40230    0.86970    0.63690    1.000
    N23      N        0.26290    0.46220    0.33480    1.000
    C9       C        0.03300    0.57680    0.92230    1.000
    H13      H        0.01430    0.63270    0.96390    1.000
    H14      H        0.06520    0.59830    0.86060    1.000
    H15      H        0.95770    0.53940    0.84510    1.000
    C10      C        0.43560    0.71670    0.63230    1.000
    C11      C        0.12770    0.51550    0.07180    1.000
    N24      N        0.29570    0.82930    0.52610    1.000
    C12      C        0.49830    0.61840    0.67200    1.000
    H16      H        0.43590    0.56920    0.60250    1.000
    H17      H        0.55720    0.61980    0.64510    1.000
    H18      H        0.54180    0.60360    0.79360    1.000
    Zn4      Zn       0.66640    0.14355    0.37010    1.000
    N25      N        0.99410    0.29960    0.70890    1.000
    N26      N        0.81250    0.23180    0.52070    1.000
    N27      N        0.68070    0.03500    0.23820    1.000
    N28      N        0.67630    0.93230    0.06220    1.000
    N29      N        0.76100    0.90170    0.22960    1.000
    N30      N        0.90230    0.36970    0.63690    1.000
    N31      N        0.76290    0.96220    0.33480    1.000
    C13      C        0.53300    0.07680    0.92230    1.000
    H19      H        0.51430    0.13270    0.96390    1.000
    H20      H        0.56520    0.09830    0.86060    1.000
    H21      H        0.45770    0.03940    0.84510    1.000
    C14      C        0.93560    0.21670    0.63230    1.000
    C15      C        0.62770    0.01550    0.07180    1.000
    N32      N        0.79570    0.32930    0.52610    1.000
    C16      C        0.99830    0.11840    0.67200    1.000
    H22      H        0.93590    0.06920    0.60250    1.000
    H23      H        0.05720    0.11980    0.64510    1.000
    H24      H        0.04180    0.10360    0.79360    1.000
