# CIF file generated by openbabel 3.1.0, see https://openbabel.org
data_I
_chemical_name_common 'NIGBOW_clean'
_cell_length_a 6.957
_cell_length_b 15.2588
_cell_length_c 15.2588
_cell_angle_alpha 84.7587
_cell_angle_beta 76.8226
_cell_angle_gamma 76.8226
_space_group_name_H-M_alt 'P 1'
_space_group_name_Hall 'P 1'
loop_
    _symmetry_equiv_pos_as_xyz
    x,y,z
loop_
    _atom_site_label
    _atom_site_type_symbol
    _atom_site_fract_x
    _atom_site_fract_y
    _atom_site_fract_z
    _atom_site_occupancy
    V1       V        0.50000    0.00000    0.00000    1.000
    V2       V        0.00000    0.00000    0.00000    1.000
    C3       C        0.58460    0.69400    0.00400    1.000
    C4       C        0.63700    0.59500    0.00300    1.000
    C5       C        0.91540    0.99600    0.30600    1.000
    C6       C        0.86300    0.99700    0.40500    1.000
    C7       C        0.78260    0.30600    0.99600    1.000
    C8       C        0.73500    0.40500    0.99700    1.000
    C9       C        0.71740    0.00400    0.69400    1.000
    C10      C        0.76500    0.00300    0.59500    1.000
    C11      C        0.41540    0.30600    0.99600    1.000
    C12      C        0.36300    0.40500    0.99700    1.000
    C13      C        0.08460    0.00400    0.69400    1.000
    C14      C        0.13700    0.00300    0.59500    1.000
    C15      C        0.21740    0.69400    0.00400    1.000
    C16      C        0.26500    0.59500    0.00300    1.000
    C17      C        0.28260    0.99600    0.30600    1.000
    C18      C        0.23500    0.99700    0.40500    1.000
    C19      C        0.33200    0.84400    0.99200    1.000
    C20      C        0.37900    0.74100    0.00100    1.000
    C21      C        0.47400    0.55000    0.00200    1.000
    C22      C        0.16800    0.00800    0.15600    1.000
    C23      C        0.12100    0.99900    0.25900    1.000
    C24      C        0.02600    0.99800    0.45000    1.000
    C25      C        0.66800    0.15600    0.00800    1.000
    C26      C        0.62100    0.25900    0.99900    1.000
    C27      C        0.52600    0.45000    0.99800    1.000
    C28      C        0.83200    0.99200    0.84400    1.000
    C29      C        0.87900    0.00100    0.74100    1.000
    C30      C        0.97400    0.00200    0.55000    1.000
    O31      O        0.48750    0.88450    0.98650    1.000
    O32      O        0.01250    0.01350    0.11550    1.000
    O33      O        0.85850    0.11550    0.01350    1.000
    O34      O        0.64150    0.98650    0.88450    1.000
    O35      O        0.51250    0.11550    0.01350    1.000
    O36      O        0.98750    0.98650    0.88450    1.000
    O37      O        0.14150    0.88450    0.98650    1.000
    O38      O        0.35850    0.01350    0.11550    1.000
    O39      O        0.75000    0.96200    0.03800    1.000
    O40      O        0.25000    0.03800    0.96200    1.000
    H41      H        0.70443    0.73296    0.00709    1.000
    H42      H        0.79862    0.55739    0.00303    1.000
    H43      H        0.79557    0.99291    0.26704    1.000
    H44      H        0.70138    0.99697    0.44261    1.000
    H45      H        0.94448    0.26704    0.99291    1.000
    H46      H        0.85904    0.44261    0.99697    1.000
    H47      H        0.55552    0.00709    0.73296    1.000
    H48      H        0.64096    0.00303    0.55739    1.000
    H49      H        0.29557    0.26704    0.99291    1.000
    H50      H        0.20138    0.44261    0.99697    1.000
    H51      H        0.20443    0.00709    0.73296    1.000
    H52      H        0.29862    0.00303    0.55739    1.000
    H53      H        0.05552    0.73296    0.00709    1.000
    H54      H        0.14096    0.55739    0.00303    1.000
    H55      H        0.44448    0.99291    0.26704    1.000
    H56      H        0.35904    0.99697    0.44261    1.000
