# CIF file generated by openbabel 3.1.0, see https://openbabel.org
data_I
_chemical_name_common 'image0'
_cell_length_a 18.8317
_cell_length_b 18.8317
_cell_length_c 38.5698
_cell_angle_alpha 90
_cell_angle_beta 90
_cell_angle_gamma 120
_space_group_name_H-M_alt 'P 1'
_space_group_name_Hall 'P 1'
loop_
    _symmetry_equiv_pos_as_xyz
    x,y,z
loop_
    _atom_site_label
    _atom_site_type_symbol
    _atom_site_fract_x
    _atom_site_fract_y
    _atom_site_fract_z
    _atom_site_occupancy
    O1       O        0.55552    0.70306    0.33002    1.000
    O2       O        0.63282    0.74215    0.37719    1.000
    C1       C        0.57150    0.69340    0.36081    1.000
    C2       C        0.52830    0.59870    0.41126    1.000
    H1       H        0.57630    0.63640    0.42240    1.000
    C3       C        0.51390    0.61360    0.37744    1.000
    C4       C        0.45410    0.44210    0.47940    1.000
    C5       C        0.53760    0.71090    0.23750    1.000
    C6       C        0.51170    0.69820    0.20380    1.000
    H2       H        0.54850    0.67250    0.24760    1.000
    H3       H        0.50510    0.65280    0.19140    1.000
    H4       H        0.36200    0.45900    0.50300    1.000
    H5       H        0.44320    0.39110    0.46800    1.000
    C7       C        0.41910    0.48280    0.48990    1.000
    O3       O        0.22219    0.03639    0.66335    1.000
    O4       O        0.29949    0.07548    0.71052    1.000
    C8       C        0.23817    0.02673    0.69414    1.000
    C9       C        0.19497    0.93203    0.74459    1.000
    H6       H        0.24297    0.96973    0.75573    1.000
    C10      C        0.18057    0.94693    0.71077    1.000
    C11      C        0.12077    0.77543    0.81273    1.000
    C12      C        0.20427    0.04423    0.57083    1.000
    C13      C        0.17837    0.03153    0.53713    1.000
    H7       H        0.21517    0.00583    0.58093    1.000
    H8       H        0.17177    0.98613    0.52473    1.000
    H9       H        0.02867    0.79233    0.83633    1.000
    H10      H        0.10987    0.72443    0.80133    1.000
    C14      C        0.08577    0.81613    0.82323    1.000
    O5       O        0.88885    0.36973    0.99669    1.000
    O6       O        0.96615    0.40882    0.04386    1.000
    C15      C        0.90483    0.36007    0.02748    1.000
    C16      C        0.86163    0.26537    0.07793    1.000
    H11      H        0.90963    0.30307    0.08907    1.000
    C17      C        0.84723    0.28027    0.04411    1.000
    C18      C        0.78743    0.10877    0.14607    1.000
    C19      C        0.87093    0.37757    0.90417    1.000
    C20      C        0.84503    0.36487    0.87047    1.000
    H12      H        0.88183    0.33917    0.91427    1.000
    H13      H        0.83843    0.31947    0.85807    1.000
    H14      H        0.69533    0.12567    0.16967    1.000
    H15      H        0.77653    0.05777    0.13467    1.000
    C21      C        0.75243    0.14947    0.15657    1.000
    O7       O        0.29694    0.85246    0.33002    1.000
    O8       O        0.25785    0.89067    0.37719    1.000
    C22      C        0.30660    0.87810    0.36081    1.000
    C23      C        0.40130    0.92960    0.41126    1.000
    H16      H        0.36360    0.93990    0.42240    1.000
    C24      C        0.38640    0.90030    0.37744    1.000
    C25      C        0.55790    0.01200    0.47940    1.000
    C26      C        0.28910    0.82670    0.23750    1.000
    C27      C        0.30180    0.81350    0.20380    1.000
    H17      H        0.32750    0.87600    0.24760    1.000
    H18      H        0.34720    0.85230    0.19140    1.000
    H19      H        0.54100    0.90300    0.50300    1.000
    H20      H        0.60890    0.05210    0.46800    1.000
    C28      C        0.51720    0.93630    0.48990    1.000
    O9       O        0.96361    0.18579    0.66335    1.000
    O10      O        0.92452    0.22400    0.71052    1.000
    C29      C        0.97327    0.21143    0.69414    1.000
    C30      C        0.06797    0.26293    0.74459    1.000
    H21      H        0.03027    0.27323    0.75573    1.000
    C31      C        0.05307    0.23363    0.71077    1.000
    C32      C        0.22457    0.34533    0.81273    1.000
    C33      C        0.95577    0.16003    0.57083    1.000
    C34      C        0.96847    0.14683    0.53713    1.000
    H22      H        0.99417    0.20933    0.58093    1.000
    H23      H        0.01387    0.18563    0.52473    1.000
    H24      H        0.20767    0.23633    0.83633    1.000
    H25      H        0.27557    0.38543    0.80133    1.000
    C35      C        0.18387    0.26963    0.82323    1.000
    O11      O        0.63027    0.51913    0.99669    1.000
    O12      O        0.59118    0.55734    0.04386    1.000
    C36      C        0.63993    0.54477    0.02748    1.000
    C37      C        0.73463    0.59627    0.07793    1.000
    H26      H        0.69693    0.60657    0.08907    1.000
    C38      C        0.71973    0.56697    0.04411    1.000
    C39      C        0.89123    0.67867    0.14607    1.000
    C40      C        0.62243    0.49337    0.90417    1.000
    C41      C        0.63513    0.48017    0.87047    1.000
    H27      H        0.66083    0.54267    0.91427    1.000
    H28      H        0.68053    0.51897    0.85807    1.000
    H29      H        0.87433    0.56967    0.16967    1.000
    H30      H        0.94223    0.71877    0.13467    1.000
    C42      C        0.85053    0.60297    0.15657    1.000
    O13      O        0.14754    0.44448    0.33002    1.000
    O14      O        0.10933    0.36718    0.37719    1.000
    C43      C        0.12190    0.42850    0.36081    1.000
    C44      C        0.07040    0.47170    0.41126    1.000
    H31      H        0.06010    0.42370    0.42240    1.000
    C45      C        0.09970    0.48610    0.37744    1.000
    C46      C        0.98800    0.54590    0.47940    1.000
    C47      C        0.17330    0.46240    0.23750    1.000
    C48      C        0.18650    0.48830    0.20380    1.000
    H32      H        0.12400    0.45150    0.24760    1.000
    H33      H        0.14770    0.49490    0.19140    1.000
    H34      H        0.09700    0.63800    0.50300    1.000
    H35      H        0.94790    0.55680    0.46800    1.000
    C49      C        0.06370    0.58090    0.48990    1.000
    O15      O        0.81421    0.77781    0.66335    1.000
    O16      O        0.77600    0.70051    0.71052    1.000
    C50      C        0.78857    0.76183    0.69414    1.000
    C51      C        0.73707    0.80503    0.74459    1.000
    H36      H        0.72677    0.75703    0.75573    1.000
    C52      C        0.76637    0.81943    0.71077    1.000
    C53      C        0.65467    0.87923    0.81273    1.000
    C54      C        0.83997    0.79573    0.57083    1.000
    C55      C        0.85317    0.82163    0.53713    1.000
    H37      H        0.79067    0.78483    0.58093    1.000
    H38      H        0.81437    0.82823    0.52473    1.000
    H39      H        0.76367    0.97133    0.83633    1.000
    H40      H        0.61457    0.89013    0.80133    1.000
    C56      C        0.73037    0.91423    0.82323    1.000
    O17      O        0.48087    0.11115    0.99669    1.000
    O18      O        0.44266    0.03385    0.04386    1.000
    C57      C        0.45523    0.09517    0.02748    1.000
    C58      C        0.40373    0.13837    0.07793    1.000
    H41      H        0.39343    0.09037    0.08907    1.000
    C59      C        0.43303    0.15277    0.04411    1.000
    C60      C        0.32133    0.21257    0.14607    1.000
    C61      C        0.50663    0.12907    0.90417    1.000
    C62      C        0.51983    0.15497    0.87047    1.000
    H42      H        0.45733    0.11817    0.91427    1.000
    H43      H        0.48103    0.16157    0.85807    1.000
    H44      H        0.43033    0.30467    0.16967    1.000
    H45      H        0.28123    0.22347    0.13467    1.000
    C63      C        0.39703    0.24757    0.15657    1.000
    O19      O        0.70306    0.55552    0.66998    1.000
    O20      O        0.74215    0.63282    0.62281    1.000
    C64      C        0.69340    0.57150    0.63919    1.000
    C65      C        0.59870    0.52830    0.58874    1.000
    H46      H        0.63640    0.57630    0.57760    1.000
    C66      C        0.61360    0.51390    0.62256    1.000
    C67      C        0.44210    0.45410    0.52060    1.000
    C68      C        0.71090    0.53760    0.76250    1.000
    C69      C        0.69820    0.51170    0.79620    1.000
    H47      H        0.67250    0.54850    0.75240    1.000
    H48      H        0.65280    0.50510    0.80860    1.000
    H49      H        0.45900    0.36200    0.49700    1.000
    H50      H        0.39110    0.44320    0.53200    1.000
    C70      C        0.48280    0.41910    0.51010    1.000
    O21      O        0.36973    0.88885    0.00331    1.000
    O22      O        0.40882    0.96615    0.95614    1.000
    C71      C        0.36007    0.90483    0.97252    1.000
    C72      C        0.26537    0.86163    0.92207    1.000
    H51      H        0.30307    0.90963    0.91093    1.000
    C73      C        0.28027    0.84723    0.95589    1.000
    C74      C        0.10877    0.78743    0.85393    1.000
    C75      C        0.37757    0.87093    0.09583    1.000
    C76      C        0.36487    0.84503    0.12953    1.000
    H52      H        0.33917    0.88183    0.08573    1.000
    H53      H        0.31947    0.83843    0.14193    1.000
    H54      H        0.12567    0.69533    0.83033    1.000
    H55      H        0.05777    0.77653    0.86533    1.000
    C77      C        0.14947    0.75243    0.84343    1.000
    O23      O        0.03639    0.22219    0.33665    1.000
    O24      O        0.07548    0.29949    0.28948    1.000
    C78      C        0.02673    0.23817    0.30586    1.000
    C79      C        0.93203    0.19497    0.25541    1.000
    H56      H        0.96973    0.24297    0.24427    1.000
    C80      C        0.94693    0.18057    0.28923    1.000
    C81      C        0.77543    0.12077    0.18727    1.000
    C82      C        0.04423    0.20427    0.42917    1.000
    C83      C        0.03153    0.17837    0.46287    1.000
    H57      H        0.00583    0.21517    0.41907    1.000
    H58      H        0.98613    0.17177    0.47527    1.000
    H59      H        0.79233    0.02867    0.16367    1.000
    H60      H        0.72443    0.10987    0.19867    1.000
    C84      C        0.81613    0.08577    0.17677    1.000
    O25      O        0.85246    0.29694    0.66998    1.000
    O26      O        0.89067    0.25785    0.62281    1.000
    C85      C        0.87810    0.30660    0.63919    1.000
    C86      C        0.92960    0.40130    0.58874    1.000
    H61      H        0.93990    0.36360    0.57760    1.000
    C87      C        0.90030    0.38640    0.62256    1.000
    C88      C        0.01200    0.55790    0.52060    1.000
    C89      C        0.82670    0.28910    0.76250    1.000
    C90      C        0.81350    0.30180    0.79620    1.000
    H62      H        0.87600    0.32750    0.75240    1.000
    H63      H        0.85230    0.34720    0.80860    1.000
    H64      H        0.90300    0.54100    0.49700    1.000
    H65      H        0.05210    0.60890    0.53200    1.000
    C91      C        0.93630    0.51720    0.51010    1.000
    O27      O        0.51913    0.63027    0.00331    1.000
    O28      O        0.55734    0.59118    0.95614    1.000
    C92      C        0.54477    0.63993    0.97252    1.000
    C93      C        0.59627    0.73463    0.92207    1.000
    H66      H        0.60657    0.69693    0.91093    1.000
    C94      C        0.56697    0.71973    0.95589    1.000
    C95      C        0.67867    0.89123    0.85393    1.000
    C96      C        0.49337    0.62243    0.09583    1.000
    C97      C        0.48017    0.63513    0.12953    1.000
    H67      H        0.54267    0.66083    0.08573    1.000
    H68      H        0.51897    0.68053    0.14193    1.000
    H69      H        0.56967    0.87433    0.83033    1.000
    H70      H        0.71877    0.94223    0.86533    1.000
    C98      C        0.60297    0.85053    0.84343    1.000
    O29      O        0.18579    0.96361    0.33665    1.000
    O30      O        0.22400    0.92452    0.28948    1.000
    C99      C        0.21143    0.97327    0.30586    1.000
    C100     C        0.26293    0.06797    0.25541    1.000
    H71      H        0.27323    0.03027    0.24427    1.000
    C101     C        0.23363    0.05307    0.28923    1.000
    C102     C        0.34533    0.22457    0.18727    1.000
    C103     C        0.16003    0.95577    0.42917    1.000
    C104     C        0.14683    0.96847    0.46287    1.000
    H72      H        0.20933    0.99417    0.41907    1.000
    H73      H        0.18563    0.01387    0.47527    1.000
    H74      H        0.23633    0.20767    0.16367    1.000
    H75      H        0.38543    0.27557    0.19867    1.000
    C105     C        0.26963    0.18387    0.17677    1.000
    O31      O        0.44448    0.14754    0.66998    1.000
    O32      O        0.36718    0.10933    0.62281    1.000
    C106     C        0.42850    0.12190    0.63919    1.000
    C107     C        0.47170    0.07040    0.58874    1.000
    H76      H        0.42370    0.06010    0.57760    1.000
    C108     C        0.48610    0.09970    0.62256    1.000
    C109     C        0.54590    0.98800    0.52060    1.000
    C110     C        0.46240    0.17330    0.76250    1.000
    C111     C        0.48830    0.18650    0.79620    1.000
    H77      H        0.45150    0.12400    0.75240    1.000
    H78      H        0.49490    0.14770    0.80860    1.000
    H79      H        0.63800    0.09700    0.49700    1.000
    H80      H        0.55680    0.94790    0.53200    1.000
    C112     C        0.58090    0.06370    0.51010    1.000
    O33      O        0.11115    0.48087    0.00331    1.000
    O34      O        0.03385    0.44266    0.95614    1.000
    C113     C        0.09517    0.45523    0.97252    1.000
    C114     C        0.13837    0.40373    0.92207    1.000
    H81      H        0.09037    0.39343    0.91093    1.000
    C115     C        0.15277    0.43303    0.95589    1.000
    C116     C        0.21257    0.32133    0.85393    1.000
    C117     C        0.12907    0.50663    0.09583    1.000
    C118     C        0.15497    0.51983    0.12953    1.000
    H82      H        0.11817    0.45733    0.08573    1.000
    H83      H        0.16157    0.48103    0.14193    1.000
    H84      H        0.30467    0.43033    0.83033    1.000
    H85      H        0.22347    0.28123    0.86533    1.000
    C119     C        0.24757    0.39703    0.84343    1.000
    O35      O        0.77781    0.81421    0.33665    1.000
    O36      O        0.70051    0.77600    0.28948    1.000
    C120     C        0.76183    0.78857    0.30586    1.000
    C121     C        0.80503    0.73707    0.25541    1.000
    H86      H        0.75703    0.72677    0.24427    1.000
    C122     C        0.81943    0.76637    0.28923    1.000
    C123     C        0.87923    0.65467    0.18727    1.000
    C124     C        0.79573    0.83997    0.42917    1.000
    C125     C        0.82163    0.85317    0.46287    1.000
    H87      H        0.78483    0.79067    0.41907    1.000
    H88      H        0.82823    0.81437    0.47527    1.000
    H89      H        0.97133    0.76367    0.16367    1.000
    H90      H        0.89013    0.61457    0.19867    1.000
    C126     C        0.91423    0.73037    0.17677    1.000
    O37      O        0.44448    0.29694    0.66998    1.000
    O38      O        0.36718    0.25785    0.62281    1.000
    C127     C        0.42850    0.30660    0.63919    1.000
    C128     C        0.47170    0.40130    0.58874    1.000
    H91      H        0.42370    0.36360    0.57760    1.000
    C129     C        0.48610    0.38640    0.62256    1.000
    C130     C        0.54590    0.55790    0.52060    1.000
    C131     C        0.46240    0.28910    0.76250    1.000
    C132     C        0.48830    0.30180    0.79620    1.000
    H92      H        0.45150    0.32750    0.75240    1.000
    H93      H        0.49490    0.34720    0.80860    1.000
    H94      H        0.63800    0.54100    0.49700    1.000
    H95      H        0.55680    0.60890    0.53200    1.000
    C133     C        0.58090    0.51720    0.51010    1.000
    O39      O        0.11115    0.63027    0.00331    1.000
    O40      O        0.03385    0.59118    0.95614    1.000
    C134     C        0.09517    0.63993    0.97252    1.000
    C135     C        0.13837    0.73463    0.92207    1.000
    H96      H        0.09037    0.69693    0.91093    1.000
    C136     C        0.15277    0.71973    0.95589    1.000
    C137     C        0.21257    0.89123    0.85393    1.000
    C138     C        0.12907    0.62243    0.09583    1.000
    C139     C        0.15497    0.63513    0.12953    1.000
    H97      H        0.11817    0.66083    0.08573    1.000
    H98      H        0.16157    0.68053    0.14193    1.000
    H99      H        0.30467    0.87433    0.83033    1.000
    H100     H        0.22347    0.94223    0.86533    1.000
    C140     C        0.24757    0.85053    0.84343    1.000
    O41      O        0.77781    0.96361    0.33665    1.000
    O42      O        0.70051    0.92452    0.28948    1.000
    C141     C        0.76183    0.97327    0.30586    1.000
    C142     C        0.80503    0.06797    0.25541    1.000
    H101     H        0.75703    0.03027    0.24427    1.000
    C143     C        0.81943    0.05307    0.28923    1.000
    C144     C        0.87923    0.22457    0.18727    1.000
    C145     C        0.79573    0.95577    0.42917    1.000
    C146     C        0.82163    0.96847    0.46287    1.000
    H102     H        0.78483    0.99417    0.41907    1.000
    H103     H        0.82823    0.01387    0.47527    1.000
    H104     H        0.97133    0.20767    0.16367    1.000
    H105     H        0.89013    0.27557    0.19867    1.000
    C147     C        0.91423    0.18387    0.17677    1.000
    O43      O        0.70306    0.14754    0.66998    1.000
    O44      O        0.74215    0.10933    0.62281    1.000
    C148     C        0.69340    0.12190    0.63919    1.000
    C149     C        0.59870    0.07040    0.58874    1.000
    H106     H        0.63640    0.06010    0.57760    1.000
    C150     C        0.61360    0.09970    0.62256    1.000
    C151     C        0.44210    0.98800    0.52060    1.000
    C152     C        0.71090    0.17330    0.76250    1.000
    C153     C        0.69820    0.18650    0.79620    1.000
    H107     H        0.67250    0.12400    0.75240    1.000
    H108     H        0.65280    0.14770    0.80860    1.000
    H109     H        0.45900    0.09700    0.49700    1.000
    H110     H        0.39110    0.94790    0.53200    1.000
    C154     C        0.48280    0.06370    0.51010    1.000
    O45      O        0.36973    0.48087    0.00331    1.000
    O46      O        0.40882    0.44266    0.95614    1.000
    C155     C        0.36007    0.45523    0.97252    1.000
    C156     C        0.26537    0.40373    0.92207    1.000
    H111     H        0.30307    0.39343    0.91093    1.000
    C157     C        0.28027    0.43303    0.95589    1.000
    C158     C        0.10877    0.32133    0.85393    1.000
    C159     C        0.37757    0.50663    0.09583    1.000
    C160     C        0.36487    0.51983    0.12953    1.000
    H112     H        0.33917    0.45733    0.08573    1.000
    H113     H        0.31947    0.48103    0.14193    1.000
    H114     H        0.12567    0.43033    0.83033    1.000
    H115     H        0.05777    0.28123    0.86533    1.000
    C161     C        0.14947    0.39703    0.84343    1.000
    O47      O        0.03639    0.81421    0.33665    1.000
    O48      O        0.07548    0.77600    0.28948    1.000
    C162     C        0.02673    0.78857    0.30586    1.000
    C163     C        0.93203    0.73707    0.25541    1.000
    H116     H        0.96973    0.72677    0.24427    1.000
    C164     C        0.94693    0.76637    0.28923    1.000
    C165     C        0.77543    0.65467    0.18727    1.000
    C166     C        0.04423    0.83997    0.42917    1.000
    C167     C        0.03153    0.85317    0.46287    1.000
    H117     H        0.00583    0.79067    0.41907    1.000
    H118     H        0.98613    0.81437    0.47527    1.000
    H119     H        0.79233    0.76367    0.16367    1.000
    H120     H        0.72443    0.61457    0.19867    1.000
    C168     C        0.81613    0.73037    0.17677    1.000
    O49      O        0.85246    0.55552    0.66998    1.000
    O50      O        0.89067    0.63282    0.62281    1.000
    C169     C        0.87810    0.57150    0.63919    1.000
    C170     C        0.92960    0.52830    0.58874    1.000
    H121     H        0.93990    0.57630    0.57760    1.000
    C171     C        0.90030    0.51390    0.62256    1.000
    C172     C        0.01200    0.45410    0.52060    1.000
    C173     C        0.82670    0.53760    0.76250    1.000
    C174     C        0.81350    0.51170    0.79620    1.000
    H122     H        0.87600    0.54850    0.75240    1.000
    H123     H        0.85230    0.50510    0.80860    1.000
    H124     H        0.90300    0.36200    0.49700    1.000
    H125     H        0.05210    0.44320    0.53200    1.000
    C175     C        0.93630    0.41910    0.51010    1.000
    O51      O        0.51913    0.88885    0.00331    1.000
    O52      O        0.55734    0.96615    0.95614    1.000
    C176     C        0.54477    0.90483    0.97252    1.000
    C177     C        0.59627    0.86163    0.92207    1.000
    H126     H        0.60657    0.90963    0.91093    1.000
    C178     C        0.56697    0.84723    0.95589    1.000
    C179     C        0.67867    0.78743    0.85393    1.000
    C180     C        0.49337    0.87093    0.09583    1.000
    C181     C        0.48017    0.84503    0.12953    1.000
    H127     H        0.54267    0.88183    0.08573    1.000
    H128     H        0.51897    0.83843    0.14193    1.000
    H129     H        0.56967    0.69533    0.83033    1.000
    H130     H        0.71877    0.77653    0.86533    1.000
    C182     C        0.60297    0.75243    0.84343    1.000
    O53      O        0.18579    0.22219    0.33665    1.000
    O54      O        0.22400    0.29949    0.28948    1.000
    C183     C        0.21143    0.23817    0.30586    1.000
    C184     C        0.26293    0.19497    0.25541    1.000
    H131     H        0.27323    0.24297    0.24427    1.000
    C185     C        0.23363    0.18057    0.28923    1.000
    C186     C        0.34533    0.12077    0.18727    1.000
    C187     C        0.16003    0.20427    0.42917    1.000
    C188     C        0.14683    0.17837    0.46287    1.000
    H132     H        0.20933    0.21517    0.41907    1.000
    H133     H        0.18563    0.17177    0.47527    1.000
    H134     H        0.23633    0.02867    0.16367    1.000
    H135     H        0.38543    0.10987    0.19867    1.000
    C189     C        0.26963    0.08577    0.17677    1.000
    O55      O        0.29694    0.44448    0.33002    1.000
    O56      O        0.25785    0.36718    0.37719    1.000
    C190     C        0.30660    0.42850    0.36081    1.000
    C191     C        0.40130    0.47170    0.41126    1.000
    H136     H        0.36360    0.42370    0.42240    1.000
    C192     C        0.38640    0.48610    0.37744    1.000
    C193     C        0.55790    0.54590    0.47940    1.000
    C194     C        0.28910    0.46240    0.23750    1.000
    C195     C        0.30180    0.48830    0.20380    1.000
    H137     H        0.32750    0.45150    0.24760    1.000
    H138     H        0.34720    0.49490    0.19140    1.000
    H139     H        0.54100    0.63800    0.50300    1.000
    H140     H        0.60890    0.55680    0.46800    1.000
    C196     C        0.51720    0.58090    0.48990    1.000
    O57      O        0.96361    0.77781    0.66335    1.000
    O58      O        0.92452    0.70051    0.71052    1.000
    C197     C        0.97327    0.76183    0.69414    1.000
    C198     C        0.06797    0.80503    0.74459    1.000
    H141     H        0.03027    0.75703    0.75573    1.000
    C199     C        0.05307    0.81943    0.71077    1.000
    C200     C        0.22457    0.87923    0.81273    1.000
    C201     C        0.95577    0.79573    0.57083    1.000
    C202     C        0.96847    0.82163    0.53713    1.000
    H142     H        0.99417    0.78483    0.58093    1.000
    H143     H        0.01387    0.82823    0.52473    1.000
    H144     H        0.20767    0.97133    0.83633    1.000
    H145     H        0.27557    0.89013    0.80133    1.000
    C203     C        0.18387    0.91423    0.82323    1.000
    O59      O        0.63027    0.11115    0.99669    1.000
    O60      O        0.59118    0.03385    0.04386    1.000
    C204     C        0.63993    0.09517    0.02748    1.000
    C205     C        0.73463    0.13837    0.07793    1.000
    H146     H        0.69693    0.09037    0.08907    1.000
    C206     C        0.71973    0.15277    0.04411    1.000
    C207     C        0.89123    0.21257    0.14607    1.000
    C208     C        0.62243    0.12907    0.90417    1.000
    C209     C        0.63513    0.15497    0.87047    1.000
    H147     H        0.66083    0.11817    0.91427    1.000
    H148     H        0.68053    0.16157    0.85807    1.000
    H149     H        0.87433    0.30467    0.16967    1.000
    H150     H        0.94223    0.22347    0.13467    1.000
    C210     C        0.85053    0.24757    0.15657    1.000
    O61      O        0.14754    0.70306    0.33002    1.000
    O62      O        0.10933    0.74215    0.37719    1.000
    C211     C        0.12190    0.69340    0.36081    1.000
    C212     C        0.07040    0.59870    0.41126    1.000
    H151     H        0.06010    0.63640    0.42240    1.000
    C213     C        0.09970    0.61360    0.37744    1.000
    C214     C        0.98800    0.44210    0.47940    1.000
    C215     C        0.17330    0.71090    0.23750    1.000
    C216     C        0.18650    0.69820    0.20380    1.000
    H152     H        0.12400    0.67250    0.24760    1.000
    H153     H        0.14770    0.65280    0.19140    1.000
    H154     H        0.09700    0.45900    0.50300    1.000
    H155     H        0.94790    0.39110    0.46800    1.000
    C217     C        0.06370    0.48280    0.48990    1.000
    O63      O        0.81421    0.03639    0.66335    1.000
    O64      O        0.77600    0.07548    0.71052    1.000
    C218     C        0.78857    0.02673    0.69414    1.000
    C219     C        0.73707    0.93203    0.74459    1.000
    H156     H        0.72677    0.96973    0.75573    1.000
    C220     C        0.76637    0.94693    0.71077    1.000
    C221     C        0.65467    0.77543    0.81273    1.000
    C222     C        0.83997    0.04423    0.57083    1.000
    C223     C        0.85317    0.03153    0.53713    1.000
    H157     H        0.79067    0.00583    0.58093    1.000
    H158     H        0.81437    0.98613    0.52473    1.000
    H159     H        0.76367    0.79233    0.83633    1.000
    H160     H        0.61457    0.72443    0.80133    1.000
    C224     C        0.73037    0.81613    0.82323    1.000
    O65      O        0.48087    0.36973    0.99669    1.000
    O66      O        0.44266    0.40882    0.04386    1.000
    C225     C        0.45523    0.36007    0.02748    1.000
    C226     C        0.40373    0.26537    0.07793    1.000
    H161     H        0.39343    0.30307    0.08907    1.000
    C227     C        0.43303    0.28027    0.04411    1.000
    C228     C        0.32133    0.10877    0.14607    1.000
    C229     C        0.50663    0.37757    0.90417    1.000
    C230     C        0.51983    0.36487    0.87047    1.000
    H162     H        0.45733    0.33917    0.91427    1.000
    H163     H        0.48103    0.31947    0.85807    1.000
    H164     H        0.43033    0.12567    0.16967    1.000
    H165     H        0.28123    0.05777    0.13467    1.000
    C231     C        0.39703    0.14947    0.15657    1.000
    O67      O        0.55552    0.85246    0.33002    1.000
    O68      O        0.63282    0.89067    0.37719    1.000
    C232     C        0.57150    0.87810    0.36081    1.000
    C233     C        0.52830    0.92960    0.41126    1.000
    H166     H        0.57630    0.93990    0.42240    1.000
    C234     C        0.51390    0.90030    0.37744    1.000
    C235     C        0.45410    0.01200    0.47940    1.000
    C236     C        0.53760    0.82670    0.23750    1.000
    C237     C        0.51170    0.81350    0.20380    1.000
    H167     H        0.54850    0.87600    0.24760    1.000
    H168     H        0.50510    0.85230    0.19140    1.000
    H169     H        0.36200    0.90300    0.50300    1.000
    H170     H        0.44320    0.05210    0.46800    1.000
    C238     C        0.41910    0.93630    0.48990    1.000
    O69      O        0.22219    0.18579    0.66335    1.000
    O70      O        0.29949    0.22400    0.71052    1.000
    C239     C        0.23817    0.21143    0.69414    1.000
    C240     C        0.19497    0.26293    0.74459    1.000
    H171     H        0.24297    0.27323    0.75573    1.000
    C241     C        0.18057    0.23363    0.71077    1.000
    C242     C        0.12077    0.34533    0.81273    1.000
    C243     C        0.20427    0.16003    0.57083    1.000
    C244     C        0.17837    0.14683    0.53713    1.000
    H172     H        0.21517    0.20933    0.58093    1.000
    H173     H        0.17177    0.18563    0.52473    1.000
    H174     H        0.02867    0.23633    0.83633    1.000
    H175     H        0.10987    0.38543    0.80133    1.000
    C245     C        0.08577    0.26963    0.82323    1.000
    O71      O        0.88885    0.51913    0.99669    1.000
    O72      O        0.96615    0.55734    0.04386    1.000
    C246     C        0.90483    0.54477    0.02748    1.000
    C247     C        0.86163    0.59627    0.07793    1.000
    H176     H        0.90963    0.60657    0.08907    1.000
    C248     C        0.84723    0.56697    0.04411    1.000
    C249     C        0.78743    0.67867    0.14607    1.000
    C250     C        0.87093    0.49337    0.90417    1.000
    C251     C        0.84503    0.48017    0.87047    1.000
    H177     H        0.88183    0.54267    0.91427    1.000
    H178     H        0.83843    0.51897    0.85807    1.000
    H179     H        0.69533    0.56967    0.16967    1.000
    H180     H        0.77653    0.71877    0.13467    1.000
    C252     C        0.75243    0.60297    0.15657    1.000
    Zn1      Zn       0.61407    0.80703    0.30146    1.000
    N1       N        0.54860    0.77430    0.25713    1.000
    C253     C        0.49760    0.74880    0.19040    1.000
    N2       N        0.45100    0.72550    0.15620    1.000
    Zn2      Zn       0.28074    0.14037    0.63479    1.000
    N3       N        0.21527    0.10763    0.59046    1.000
    C254     C        0.16427    0.08213    0.52373    1.000
    N4       N        0.11767    0.05883    0.48953    1.000
    Zn3      Zn       0.94740    0.47370    0.96813    1.000
    N5       N        0.88193    0.44097    0.92380    1.000
    C255     C        0.83093    0.41547    0.85707    1.000
    N6       N        0.78433    0.39217    0.82287    1.000
    Zn4      Zn       0.19297    0.80703    0.30146    1.000
    N7       N        0.22570    0.77430    0.25713    1.000
    C256     C        0.25120    0.74880    0.19040    1.000
    N8       N        0.27450    0.72550    0.15620    1.000
    Zn5      Zn       0.85963    0.14037    0.63479    1.000
    N9       N        0.89237    0.10763    0.59046    1.000
    C257     C        0.91787    0.08213    0.52373    1.000
    N10      N        0.94117    0.05883    0.48953    1.000
    Zn6      Zn       0.52630    0.47370    0.96813    1.000
    N11      N        0.55903    0.44097    0.92380    1.000
    C258     C        0.58453    0.41547    0.85707    1.000
    N12      N        0.60783    0.39217    0.82287    1.000
    Zn7      Zn       0.19297    0.38593    0.30146    1.000
    N13      N        0.22570    0.45140    0.25713    1.000
    C259     C        0.25120    0.50240    0.19040    1.000
    N14      N        0.27450    0.54900    0.15620    1.000
    Zn8      Zn       0.85963    0.71926    0.63479    1.000
    N15      N        0.89237    0.78473    0.59046    1.000
    C260     C        0.91787    0.83573    0.52373    1.000
    N16      N        0.94117    0.88233    0.48953    1.000
    Zn9      Zn       0.52630    0.05260    0.96813    1.000
    N17      N        0.55903    0.11807    0.92380    1.000
    C261     C        0.58453    0.16907    0.85707    1.000
    N18      N        0.60783    0.21567    0.82287    1.000
    Zn10     Zn       0.80703    0.61407    0.69854    1.000
    N19      N        0.77430    0.54860    0.74287    1.000
    C262     C        0.74880    0.49760    0.80960    1.000
    N20      N        0.72550    0.45100    0.84380    1.000
    Zn11     Zn       0.47370    0.94740    0.03187    1.000
    N21      N        0.44097    0.88193    0.07620    1.000
    C263     C        0.41547    0.83093    0.14293    1.000
    N22      N        0.39217    0.78433    0.17713    1.000
    Zn12     Zn       0.14037    0.28074    0.36521    1.000
    N23      N        0.10763    0.21527    0.40954    1.000
    C264     C        0.08213    0.16427    0.47627    1.000
    N24      N        0.05883    0.11767    0.51047    1.000
    Zn13     Zn       0.80703    0.19297    0.69854    1.000
    N25      N        0.77430    0.22570    0.74287    1.000
    C265     C        0.74880    0.25120    0.80960    1.000
    N26      N        0.72550    0.27450    0.84380    1.000
    Zn14     Zn       0.47370    0.52630    0.03187    1.000
    N27      N        0.44097    0.55903    0.07620    1.000
    C266     C        0.41547    0.58453    0.14293    1.000
    N28      N        0.39217    0.60783    0.17713    1.000
    Zn15     Zn       0.14037    0.85963    0.36521    1.000
    N29      N        0.10763    0.89237    0.40954    1.000
    C267     C        0.08213    0.91787    0.47627    1.000
    N30      N        0.05883    0.94117    0.51047    1.000
    Zn16     Zn       0.38593    0.19297    0.69854    1.000
    N31      N        0.45140    0.22570    0.74287    1.000
    C268     C        0.50240    0.25120    0.80960    1.000
    N32      N        0.54900    0.27450    0.84380    1.000
    Zn17     Zn       0.05260    0.52630    0.03187    1.000
    N33      N        0.11807    0.55903    0.07620    1.000
    C269     C        0.16907    0.58453    0.14293    1.000
    N34      N        0.21567    0.60783    0.17713    1.000
    Zn18     Zn       0.71926    0.85963    0.36521    1.000
    N35      N        0.78473    0.89237    0.40954    1.000
    C270     C        0.83573    0.91787    0.47627    1.000
    N36      N        0.88233    0.94117    0.51047    1.000
    C271     C        0.44344    0.55656    0.36090    1.000
    H181     H        0.43420    0.56580    0.33810    1.000
    C272     C        0.47170    0.52830    0.42862    1.000
    C273     C        0.48650    0.51350    0.46546    1.000
    H182     H        0.51650    0.48350    0.46690    1.000
    C274     C        0.11011    0.88989    0.69423    1.000
    H183     H        0.10087    0.89913    0.67143    1.000
    C275     C        0.13837    0.86163    0.76195    1.000
    C276     C        0.15317    0.84683    0.79879    1.000
    H184     H        0.18317    0.81683    0.80023    1.000
    C277     C        0.77677    0.22323    0.02757    1.000
    H185     H        0.76753    0.23247    0.00477    1.000
    C278     C        0.80503    0.19497    0.09529    1.000
    C279     C        0.81983    0.18017    0.13213    1.000
    H186     H        0.84983    0.15017    0.13357    1.000
    C280     C        0.44344    0.88688    0.36090    1.000
    H187     H        0.43420    0.86840    0.33810    1.000
    C281     C        0.47170    0.94340    0.42862    1.000
    C282     C        0.48650    0.97300    0.46546    1.000
    H188     H        0.51650    0.03300    0.46690    1.000
    C283     C        0.11011    0.22021    0.69423    1.000
    H189     H        0.10087    0.20173    0.67143    1.000
    C284     C        0.13837    0.27673    0.76195    1.000
    C285     C        0.15317    0.30633    0.79879    1.000
    H190     H        0.18317    0.36633    0.80023    1.000
    C286     C        0.77677    0.55355    0.02757    1.000
    H191     H        0.76753    0.53507    0.00477    1.000
    C287     C        0.80503    0.61007    0.09529    1.000
    C288     C        0.81983    0.63967    0.13213    1.000
    H192     H        0.84983    0.69967    0.13357    1.000
    C289     C        0.11312    0.55656    0.36090    1.000
    H193     H        0.13160    0.56580    0.33810    1.000
    C290     C        0.05660    0.52830    0.42862    1.000
    C291     C        0.02700    0.51350    0.46546    1.000
    H194     H        0.96700    0.48350    0.46690    1.000
    C292     C        0.77979    0.88989    0.69423    1.000
    H195     H        0.79827    0.89913    0.67143    1.000
    C293     C        0.72327    0.86163    0.76195    1.000
    C294     C        0.69367    0.84683    0.79879    1.000
    H196     H        0.63367    0.81683    0.80023    1.000
    C295     C        0.44645    0.22323    0.02757    1.000
    H197     H        0.46493    0.23247    0.00477    1.000
    C296     C        0.38993    0.19497    0.09529    1.000
    C297     C        0.36033    0.18017    0.13213    1.000
    H198     H        0.30033    0.15017    0.13357    1.000
    C298     C        0.55656    0.44344    0.63910    1.000
    H199     H        0.56580    0.43420    0.66190    1.000
    C299     C        0.52830    0.47170    0.57138    1.000
    C300     C        0.51350    0.48650    0.53454    1.000
    H200     H        0.48350    0.51650    0.53310    1.000
    C301     C        0.22323    0.77677    0.97243    1.000
    H201     H        0.23247    0.76753    0.99523    1.000
    C302     C        0.19497    0.80503    0.90471    1.000
    C303     C        0.18017    0.81983    0.86787    1.000
    H202     H        0.15017    0.84983    0.86643    1.000
    C304     C        0.88989    0.11011    0.30577    1.000
    H203     H        0.89913    0.10087    0.32857    1.000
    C305     C        0.86163    0.13837    0.23805    1.000
    C306     C        0.84683    0.15317    0.20121    1.000
    H204     H        0.81683    0.18317    0.19977    1.000
    C307     C        0.88688    0.44344    0.63910    1.000
    H205     H        0.86840    0.43420    0.66190    1.000
    C308     C        0.94340    0.47170    0.57138    1.000
    C309     C        0.97300    0.48650    0.53454    1.000
    H206     H        0.03300    0.51650    0.53310    1.000
    C310     C        0.55355    0.77677    0.97243    1.000
    H207     H        0.53507    0.76753    0.99523    1.000
    C311     C        0.61007    0.80503    0.90471    1.000
    C312     C        0.63967    0.81983    0.86787    1.000
    H208     H        0.69967    0.84983    0.86643    1.000
    C313     C        0.22021    0.11011    0.30577    1.000
    H209     H        0.20173    0.10087    0.32857    1.000
    C314     C        0.27673    0.13837    0.23805    1.000
    C315     C        0.30633    0.15317    0.20121    1.000
    H210     H        0.36633    0.18317    0.19977    1.000
    C316     C        0.55656    0.11312    0.63910    1.000
    H211     H        0.56580    0.13160    0.66190    1.000
    C317     C        0.52830    0.05660    0.57138    1.000
    C318     C        0.51350    0.02700    0.53454    1.000
    H212     H        0.48350    0.96700    0.53310    1.000
    C319     C        0.22323    0.44645    0.97243    1.000
    H213     H        0.23247    0.46493    0.99523    1.000
    C320     C        0.19497    0.38993    0.90471    1.000
    C321     C        0.18017    0.36033    0.86787    1.000
    H214     H        0.15017    0.30033    0.86643    1.000
    C322     C        0.88989    0.77979    0.30577    1.000
    H215     H        0.89913    0.79827    0.32857    1.000
    C323     C        0.86163    0.72327    0.23805    1.000
    C324     C        0.84683    0.69367    0.20121    1.000
    H216     H        0.81683    0.63367    0.19977    1.000
