# CIF file generated by openbabel 3.1.0, see https://openbabel.org
data_I
_chemical_name_common 'image0'
_cell_length_a 8.9664
_cell_length_b 8.9664
_cell_length_c 12.3548
_cell_angle_alpha 90
_cell_angle_beta 90
_cell_angle_gamma 90
_space_group_name_H-M_alt 'P 1'
_space_group_name_Hall 'P 1'
loop_
    _symmetry_equiv_pos_as_xyz
    x,y,z
loop_
    _atom_site_label
    _atom_site_type_symbol
    _atom_site_fract_x
    _atom_site_fract_y
    _atom_site_fract_z
    _atom_site_occupancy
    C1       C        0.76050    0.54420    0.11900    1.000
    O1       O        0.88670    0.60270    0.13710    1.000
    O2       O        0.68530    0.60040    0.03690    1.000
    O3       O        0.70650    0.44060    0.17520    1.000
    C2       C        0.23950    0.45580    0.11900    1.000
    O4       O        0.11330    0.39730    0.13710    1.000
    O5       O        0.31470    0.39960    0.03690    1.000
    O6       O        0.29350    0.55940    0.17520    1.000
    C3       C        0.54420    0.23950    0.88100    1.000
    O7       O        0.60270    0.11330    0.86290    1.000
    O8       O        0.60040    0.31470    0.96310    1.000
    O9       O        0.44060    0.29350    0.82480    1.000
    C4       C        0.45580    0.76050    0.88100    1.000
    O10      O        0.39730    0.88670    0.86290    1.000
    O11      O        0.39960    0.68530    0.96310    1.000
    O12      O        0.55940    0.70650    0.82480    1.000
    C5       C        0.26050    0.95580    0.61900    1.000
    O13      O        0.38670    0.89730    0.63710    1.000
    O14      O        0.18530    0.89960    0.53690    1.000
    O15      O        0.20650    0.05940    0.67520    1.000
    C6       C        0.73950    0.04420    0.61900    1.000
    O16      O        0.61330    0.10270    0.63710    1.000
    O17      O        0.81470    0.10040    0.53690    1.000
    O18      O        0.79350    0.94060    0.67520    1.000
    C7       C        0.04420    0.26050    0.38100    1.000
    O19      O        0.10270    0.38670    0.36290    1.000
    O20      O        0.10040    0.18530    0.46310    1.000
    O21      O        0.94060    0.20650    0.32480    1.000
    C8       C        0.95580    0.73950    0.38100    1.000
    O22      O        0.89730    0.61330    0.36290    1.000
    O23      O        0.89960    0.81470    0.46310    1.000
    O24      O        0.05940    0.79350    0.32480    1.000
    Cu1      Cu       0.00000    0.50000    0.25000    1.000
    Cu2      Cu       0.50000    0.00000    0.75000    1.000
    Cu3      Cu       0.50000    0.50000    0.00000    1.000
    Cu4      Cu       0.00000    0.00000    0.50000    1.000
