# CIF file generated by openbabel 3.1.0, see https://openbabel.org
data_I
_chemical_name_common 'image0'
_cell_length_a 32.8195
_cell_length_b 32.8195
_cell_length_c 19.0793
_cell_angle_alpha 90
_cell_angle_beta 90
_cell_angle_gamma 120
_space_group_name_H-M_alt 'P 1'
_space_group_name_Hall 'P 1'
loop_
    _symmetry_equiv_pos_as_xyz
    x,y,z
loop_
    _atom_site_label
    _atom_site_type_symbol
    _atom_site_fract_x
    _atom_site_fract_y
    _atom_site_fract_z
    _atom_site_occupancy
    Co1      Co       0.51848    0.04872    0.19288    1.000
    Co2      Co       0.48262    0.02170    0.67425    1.000
    O1       O        0.51989    0.07242    0.09391    1.000
    O2       O        0.54410    0.14782    0.11130    1.000
    O3       O        0.51187    0.01809    0.84706    1.000
    O4       O        0.49325    0.05620    0.76660    1.000
    O5       O        0.59250    0.25651    0.91660    1.000
    O6       O        0.57050    0.23037    0.80910    1.000
    O7       O        0.58291    0.05366    0.19872    1.000
    O8       O        0.58650    0.02792    0.30629    1.000
    O9       O        0.79429    0.13876    0.10284    1.000
    O10      O        0.72730    0.12047    0.05309    1.000
    C1       C        0.53270    0.12075    0.99550    1.000
    C2       C        0.51966    0.08399    0.94860    1.000
    C3       C        0.52099    0.09190    0.87670    1.000
    C4       C        0.53666    0.13729    0.85190    1.000
    C5       C        0.55174    0.17495    0.89810    1.000
    C6       C        0.54900    0.16630    0.96970    1.000
    C7       C        0.53200    0.11314    0.07340    1.000
    C8       C        0.57320    0.22474    0.87270    1.000
    C9       C        0.50750    0.05207    0.82590    1.000
    C10      C        0.65729    0.07728    0.24810    1.000
    C11      C        0.67923    0.09110    0.18290    1.000
    C12      C        0.72810    0.11330    0.17770    1.000
    C13      C        0.75514    0.12596    0.23860    1.000
    C14      C        0.73350    0.11440    0.30410    1.000
    C15      C        0.68436    0.08820    0.30797    1.000
    C16      C        0.60425    0.05087    0.25166    1.000
    C17      C        0.75101    0.12488    0.10747    1.000
    H1       H        0.50890    0.05150    0.97200    1.000
    H2       H        0.53890    0.14180    0.80900    1.000
    H3       H        0.55800    0.19100    0.00500    1.000
    H4       H        0.66090    0.08470    0.14200    1.000
    H5       H        0.78830    0.14280    0.23500    1.000
    H6       H        0.66970    0.07980    0.35300    1.000
    C18      C        0.76162    0.13270    0.36980    1.000
    O11      O        0.74264    0.11965    0.42803    1.000
    O12      O        0.80436    0.16559    0.36552    1.000
    Co3      Co       0.18514    0.38205    0.52621    1.000
    Co4      Co       0.14929    0.35503    0.00758    1.000
    O13      O        0.18656    0.40575    0.42724    1.000
    O14      O        0.21077    0.48115    0.44463    1.000
    O15      O        0.17854    0.35142    0.18039    1.000
    O16      O        0.15992    0.38953    0.09993    1.000
    O17      O        0.25917    0.58984    0.24993    1.000
    O18      O        0.23717    0.56370    0.14243    1.000
    O19      O        0.24958    0.38699    0.53205    1.000
    O20      O        0.25317    0.36125    0.63962    1.000
    O21      O        0.46096    0.47209    0.43617    1.000
    O22      O        0.39397    0.45380    0.38642    1.000
    C19      C        0.19937    0.45408    0.32883    1.000
    C20      C        0.18633    0.41732    0.28193    1.000
    C21      C        0.18766    0.42523    0.21003    1.000
    C22      C        0.20333    0.47062    0.18523    1.000
    C23      C        0.21841    0.50828    0.23143    1.000
    C24      C        0.21567    0.49963    0.30303    1.000
    C25      C        0.19867    0.44647    0.40673    1.000
    C26      C        0.23987    0.55807    0.20603    1.000
    C27      C        0.17417    0.38540    0.15923    1.000
    C28      C        0.32396    0.41061    0.58143    1.000
    C29      C        0.34590    0.42443    0.51623    1.000
    C30      C        0.39477    0.44663    0.51103    1.000
    C31      C        0.42181    0.45929    0.57193    1.000
    C32      C        0.40017    0.44773    0.63743    1.000
    C33      C        0.35103    0.42153    0.64130    1.000
    C34      C        0.27092    0.38420    0.58499    1.000
    C35      C        0.41768    0.45821    0.44080    1.000
    H7       H        0.17557    0.38483    0.30533    1.000
    H8       H        0.20557    0.47513    0.14233    1.000
    H9       H        0.22467    0.52433    0.33833    1.000
    H10      H        0.32757    0.41803    0.47533    1.000
    H11      H        0.45497    0.47613    0.56833    1.000
    H12      H        0.33637    0.41313    0.68633    1.000
    C36      C        0.42829    0.46603    0.70313    1.000
    O23      O        0.40931    0.45298    0.76136    1.000
    O24      O        0.47103    0.49892    0.69885    1.000
    Co5      Co       0.85181    0.71539    0.85955    1.000
    Co6      Co       0.81595    0.68837    0.34092    1.000
    O25      O        0.85322    0.73909    0.76058    1.000
    O26      O        0.87743    0.81449    0.77797    1.000
    O27      O        0.84520    0.68476    0.51373    1.000
    O28      O        0.82658    0.72287    0.43327    1.000
    O29      O        0.92583    0.92318    0.58327    1.000
    O30      O        0.90383    0.89704    0.47577    1.000
    O31      O        0.91624    0.72033    0.86539    1.000
    O32      O        0.91983    0.69459    0.97296    1.000
    O33      O        0.12762    0.80543    0.76951    1.000
    O34      O        0.06063    0.78714    0.71976    1.000
    C37      C        0.86603    0.78742    0.66217    1.000
    C38      C        0.85299    0.75066    0.61527    1.000
    C39      C        0.85432    0.75857    0.54337    1.000
    C40      C        0.86999    0.80396    0.51857    1.000
    C41      C        0.88507    0.84162    0.56477    1.000
    C42      C        0.88233    0.83297    0.63637    1.000
    C43      C        0.86533    0.77981    0.74007    1.000
    C44      C        0.90653    0.89141    0.53937    1.000
    C45      C        0.84083    0.71874    0.49257    1.000
    C46      C        0.99062    0.74395    0.91477    1.000
    C47      C        0.01256    0.75777    0.84957    1.000
    C48      C        0.06143    0.77997    0.84437    1.000
    C49      C        0.08847    0.79263    0.90527    1.000
    C50      C        0.06683    0.78107    0.97077    1.000
    C51      C        0.01769    0.75487    0.97464    1.000
    C52      C        0.93758    0.71754    0.91833    1.000
    C53      C        0.08434    0.79155    0.77414    1.000
    H13      H        0.84223    0.71817    0.63867    1.000
    H14      H        0.87223    0.80847    0.47567    1.000
    H15      H        0.89133    0.85767    0.67167    1.000
    H16      H        0.99423    0.75137    0.80867    1.000
    H17      H        0.12163    0.80947    0.90167    1.000
    H18      H        0.00303    0.74647    0.01967    1.000
    C54      C        0.09495    0.79937    0.03647    1.000
    O35      O        0.07597    0.78632    0.09470    1.000
    O36      O        0.13769    0.83226    0.03219    1.000
    Co7      Co       0.95128    0.46976    0.19288    1.000
    Co8      Co       0.97830    0.46092    0.67425    1.000
    O37      O        0.92758    0.44747    0.09391    1.000
    O38      O        0.85218    0.39628    0.11130    1.000
    O39      O        0.98191    0.49378    0.84706    1.000
    O40      O        0.94380    0.43705    0.76660    1.000
    O41      O        0.74349    0.33599    0.91660    1.000
    O42      O        0.76963    0.34013    0.80910    1.000
    O43      O        0.94634    0.52925    0.19872    1.000
    O44      O        0.97208    0.55858    0.30629    1.000
    O45      O        0.86124    0.65553    0.10284    1.000
    O46      O        0.87953    0.60683    0.05309    1.000
    C55      C        0.87925    0.41195    0.99550    1.000
    C56      C        0.91601    0.43567    0.94860    1.000
    C57      C        0.90810    0.42909    0.87670    1.000
    C58      C        0.86271    0.39937    0.85190    1.000
    C59      C        0.82505    0.37679    0.89810    1.000
    C60      C        0.83370    0.38270    0.96970    1.000
    C61      C        0.88686    0.41886    0.07340    1.000
    C62      C        0.77526    0.34846    0.87270    1.000
    C63      C        0.94793    0.45543    0.82590    1.000
    C64      C        0.92272    0.58001    0.24810    1.000
    C65      C        0.90890    0.58813    0.18290    1.000
    C66      C        0.88670    0.61480    0.17770    1.000
    C67      C        0.87404    0.62918    0.23860    1.000
    C68      C        0.88560    0.61910    0.30410    1.000
    C69      C        0.91180    0.59616    0.30797    1.000
    C70      C        0.94913    0.55338    0.25166    1.000
    C71      C        0.87512    0.62613    0.10747    1.000
    H19      H        0.94850    0.45740    0.97200    1.000
    H20      H        0.85820    0.39710    0.80900    1.000
    H21      H        0.80900    0.36700    0.00500    1.000
    H22      H        0.91530    0.57620    0.14200    1.000
    H23      H        0.85720    0.64550    0.23500    1.000
    H24      H        0.92020    0.58990    0.35300    1.000
    C72      C        0.86730    0.62892    0.36980    1.000
    O47      O        0.88035    0.62299    0.42803    1.000
    O48      O        0.83441    0.63877    0.36552    1.000
    Co9      Co       0.61795    0.80309    0.52621    1.000
    Co10     Co       0.64497    0.79425    0.00758    1.000
    O49      O        0.59425    0.78080    0.42724    1.000
    O50      O        0.51885    0.72961    0.44463    1.000
    O51      O        0.64858    0.82711    0.18039    1.000
    O52      O        0.61047    0.77038    0.09993    1.000
    O53      O        0.41016    0.66932    0.24993    1.000
    O54      O        0.43630    0.67346    0.14243    1.000
    O55      O        0.61301    0.86258    0.53205    1.000
    O56      O        0.63875    0.89191    0.63962    1.000
    O57      O        0.52791    0.98886    0.43617    1.000
    O58      O        0.54620    0.94016    0.38642    1.000
    C73      C        0.54592    0.74528    0.32883    1.000
    C74      C        0.58268    0.76900    0.28193    1.000
    C75      C        0.57477    0.76242    0.21003    1.000
    C76      C        0.52938    0.73270    0.18523    1.000
    C77      C        0.49172    0.71012    0.23143    1.000
    C78      C        0.50037    0.71603    0.30303    1.000
    C79      C        0.55353    0.75219    0.40673    1.000
    C80      C        0.44193    0.68179    0.20603    1.000
    C81      C        0.61460    0.78876    0.15923    1.000
    C82      C        0.58939    0.91334    0.58143    1.000
    C83      C        0.57557    0.92146    0.51623    1.000
    C84      C        0.55337    0.94813    0.51103    1.000
    C85      C        0.54071    0.96251    0.57193    1.000
    C86      C        0.55227    0.95243    0.63743    1.000
    C87      C        0.57847    0.92949    0.64130    1.000
    C88      C        0.61580    0.88671    0.58499    1.000
    C89      C        0.54179    0.95946    0.44080    1.000
    H25      H        0.61517    0.79073    0.30533    1.000
    H26      H        0.52487    0.73043    0.14233    1.000
    H27      H        0.47567    0.70033    0.33833    1.000
    H28      H        0.58197    0.90953    0.47533    1.000
    H29      H        0.52387    0.97883    0.56833    1.000
    H30      H        0.58687    0.92323    0.68633    1.000
    C90      C        0.53397    0.96225    0.70313    1.000
    O59      O        0.54702    0.95632    0.76136    1.000
    O60      O        0.50108    0.97210    0.69885    1.000
    Co11     Co       0.28461    0.13642    0.85955    1.000
    Co12     Co       0.31163    0.12759    0.34092    1.000
    O61      O        0.26091    0.11414    0.76058    1.000
    O62      O        0.18551    0.06295    0.77797    1.000
    O63      O        0.31524    0.16045    0.51373    1.000
    O64      O        0.27713    0.10372    0.43327    1.000
    O65      O        0.07682    0.00266    0.58327    1.000
    O66      O        0.10296    0.00680    0.47577    1.000
    O67      O        0.27967    0.19592    0.86539    1.000
    O68      O        0.30541    0.22525    0.97296    1.000
    O69      O        0.19457    0.32220    0.76951    1.000
    O70      O        0.21286    0.27350    0.71976    1.000
    C91      C        0.21258    0.07862    0.66217    1.000
    C92      C        0.24934    0.10234    0.61527    1.000
    C93      C        0.24143    0.09576    0.54337    1.000
    C94      C        0.19604    0.06604    0.51857    1.000
    C95      C        0.15838    0.04346    0.56477    1.000
    C96      C        0.16703    0.04937    0.63637    1.000
    C97      C        0.22019    0.08553    0.74007    1.000
    C98      C        0.10859    0.01513    0.53937    1.000
    C99      C        0.28126    0.12210    0.49257    1.000
    C100     C        0.25605    0.24668    0.91477    1.000
    C101     C        0.24223    0.25480    0.84957    1.000
    C102     C        0.22003    0.28147    0.84437    1.000
    C103     C        0.20737    0.29585    0.90527    1.000
    C104     C        0.21893    0.28577    0.97077    1.000
    C105     C        0.24513    0.26283    0.97464    1.000
    C106     C        0.28246    0.22005    0.91833    1.000
    C107     C        0.20845    0.29280    0.77414    1.000
    H31      H        0.28183    0.12407    0.63867    1.000
    H32      H        0.19153    0.06377    0.47567    1.000
    H33      H        0.14233    0.03367    0.67167    1.000
    H34      H        0.24863    0.24287    0.80867    1.000
    H35      H        0.19053    0.31217    0.90167    1.000
    H36      H        0.25353    0.25657    0.01967    1.000
    C108     C        0.20063    0.29559    0.03647    1.000
    O71      O        0.21368    0.28966    0.09470    1.000
    O72      O        0.16774    0.30544    0.03219    1.000
    Co13     Co       0.53024    0.48152    0.19288    1.000
    Co14     Co       0.53908    0.51738    0.67425    1.000
    O73      O        0.55253    0.48011    0.09391    1.000
    O74      O        0.60372    0.45590    0.11130    1.000
    O75      O        0.50622    0.48813    0.84706    1.000
    O76      O        0.56295    0.50675    0.76660    1.000
    O77      O        0.66401    0.40750    0.91660    1.000
    O78      O        0.65987    0.42950    0.80910    1.000
    O79      O        0.47075    0.41709    0.19872    1.000
    O80      O        0.44142    0.41350    0.30629    1.000
    O81      O        0.34447    0.20571    0.10284    1.000
    O82      O        0.39317    0.27270    0.05309    1.000
    C109     C        0.58805    0.46730    0.99550    1.000
    C110     C        0.56433    0.48034    0.94860    1.000
    C111     C        0.57091    0.47901    0.87670    1.000
    C112     C        0.60063    0.46334    0.85190    1.000
    C113     C        0.62321    0.44826    0.89810    1.000
    C114     C        0.61730    0.45100    0.96970    1.000
    C115     C        0.58114    0.46800    0.07340    1.000
    C116     C        0.65154    0.42680    0.87270    1.000
    C117     C        0.54457    0.49250    0.82590    1.000
    C118     C        0.41999    0.34271    0.24810    1.000
    C119     C        0.41187    0.32077    0.18290    1.000
    C120     C        0.38520    0.27190    0.17770    1.000
    C121     C        0.37082    0.24486    0.23860    1.000
    C122     C        0.38090    0.26650    0.30410    1.000
    C123     C        0.40384    0.31564    0.30797    1.000
    C124     C        0.44662    0.39575    0.25166    1.000
    C125     C        0.37387    0.24899    0.10747    1.000
    H37      H        0.54260    0.49110    0.97200    1.000
    H38      H        0.60290    0.46110    0.80900    1.000
    H39      H        0.63300    0.44200    0.00500    1.000
    H40      H        0.42380    0.33910    0.14200    1.000
    H41      H        0.35450    0.21170    0.23500    1.000
    H42      H        0.41010    0.33030    0.35300    1.000
    C126     C        0.37108    0.23838    0.36980    1.000
    O83      O        0.37701    0.25736    0.42803    1.000
    O84      O        0.36123    0.19564    0.36552    1.000
    Co15     Co       0.19691    0.81486    0.52621    1.000
    Co16     Co       0.20575    0.85071    0.00758    1.000
    O85      O        0.21920    0.81344    0.42724    1.000
    O86      O        0.27039    0.78923    0.44463    1.000
    O87      O        0.17289    0.82146    0.18039    1.000
    O88      O        0.22962    0.84008    0.09993    1.000
    O89      O        0.33068    0.74083    0.24993    1.000
    O90      O        0.32654    0.76283    0.14243    1.000
    O91      O        0.13742    0.75042    0.53205    1.000
    O92      O        0.10809    0.74683    0.63962    1.000
    O93      O        0.01114    0.53904    0.43617    1.000
    O94      O        0.05984    0.60603    0.38642    1.000
    C127     C        0.25472    0.80063    0.32883    1.000
    C128     C        0.23100    0.81367    0.28193    1.000
    C129     C        0.23758    0.81234    0.21003    1.000
    C130     C        0.26730    0.79667    0.18523    1.000
    C131     C        0.28988    0.78159    0.23143    1.000
    C132     C        0.28397    0.78433    0.30303    1.000
    C133     C        0.24781    0.80133    0.40673    1.000
    C134     C        0.31821    0.76013    0.20603    1.000
    C135     C        0.21124    0.82583    0.15923    1.000
    C136     C        0.08666    0.67604    0.58143    1.000
    C137     C        0.07854    0.65410    0.51623    1.000
    C138     C        0.05187    0.60523    0.51103    1.000
    C139     C        0.03749    0.57819    0.57193    1.000
    C140     C        0.04757    0.59983    0.63743    1.000
    C141     C        0.07051    0.64897    0.64130    1.000
    C142     C        0.11329    0.72908    0.58499    1.000
    C143     C        0.04054    0.58232    0.44080    1.000
    H43      H        0.20927    0.82443    0.30533    1.000
    H44      H        0.26957    0.79443    0.14233    1.000
    H45      H        0.29967    0.77533    0.33833    1.000
    H46      H        0.09047    0.67243    0.47533    1.000
    H47      H        0.02117    0.54503    0.56833    1.000
    H48      H        0.07677    0.66363    0.68633    1.000
    C144     C        0.03775    0.57171    0.70313    1.000
    O95      O        0.04368    0.59069    0.76136    1.000
    O96      O        0.02790    0.52897    0.69885    1.000
    Co17     Co       0.86358    0.14819    0.85955    1.000
    Co18     Co       0.87241    0.18405    0.34092    1.000
    O97      O        0.88586    0.14678    0.76058    1.000
    O98      O        0.93705    0.12257    0.77797    1.000
    O99      O        0.83955    0.15480    0.51373    1.000
    O100     O        0.89628    0.17342    0.43327    1.000
    O101     O        0.99734    0.07417    0.58327    1.000
    O102     O        0.99320    0.09617    0.47577    1.000
    O103     O        0.80408    0.08376    0.86539    1.000
    O104     O        0.77475    0.08017    0.97296    1.000
    O105     O        0.67780    0.87238    0.76951    1.000
    O106     O        0.72650    0.93937    0.71976    1.000
    C145     C        0.92138    0.13397    0.66217    1.000
    C146     C        0.89766    0.14701    0.61527    1.000
    C147     C        0.90424    0.14568    0.54337    1.000
    C148     C        0.93396    0.13001    0.51857    1.000
    C149     C        0.95654    0.11493    0.56477    1.000
    C150     C        0.95063    0.11767    0.63637    1.000
    C151     C        0.91447    0.13467    0.74007    1.000
    C152     C        0.98487    0.09347    0.53937    1.000
    C153     C        0.87790    0.15917    0.49257    1.000
    C154     C        0.75332    0.00938    0.91477    1.000
    C155     C        0.74520    0.98744    0.84957    1.000
    C156     C        0.71853    0.93857    0.84437    1.000
    C157     C        0.70415    0.91153    0.90527    1.000
    C158     C        0.71423    0.93317    0.97077    1.000
    C159     C        0.73717    0.98231    0.97464    1.000
    C160     C        0.77995    0.06242    0.91833    1.000
    C161     C        0.70720    0.91566    0.77414    1.000
    H49      H        0.87593    0.15777    0.63867    1.000
    H50      H        0.93623    0.12777    0.47567    1.000
    H51      H        0.96633    0.10867    0.67167    1.000
    H52      H        0.75713    0.00577    0.80867    1.000
    H53      H        0.68783    0.87837    0.90167    1.000
    H54      H        0.74343    0.99697    0.01967    1.000
    C162     C        0.70441    0.90505    0.03647    1.000
    O107     O        0.71034    0.92403    0.09470    1.000
    O108     O        0.69456    0.86231    0.03219    1.000
    Co19     Co       0.48152    0.95128    0.80712    1.000
    Co20     Co       0.51738    0.97830    0.32575    1.000
    O109     O        0.48011    0.92758    0.90609    1.000
    O110     O        0.45590    0.85218    0.88870    1.000
    O111     O        0.48813    0.98191    0.15294    1.000
    O112     O        0.50675    0.94380    0.23340    1.000
    O113     O        0.40750    0.74349    0.08340    1.000
    O114     O        0.42950    0.76963    0.19090    1.000
    O115     O        0.41709    0.94634    0.80128    1.000
    O116     O        0.41350    0.97208    0.69371    1.000
    O117     O        0.20571    0.86124    0.89716    1.000
    O118     O        0.27270    0.87953    0.94691    1.000
    C163     C        0.46730    0.87925    0.00450    1.000
    C164     C        0.48034    0.91601    0.05140    1.000
    C165     C        0.47901    0.90810    0.12330    1.000
    C166     C        0.46334    0.86271    0.14810    1.000
    C167     C        0.44826    0.82505    0.10190    1.000
    C168     C        0.45100    0.83370    0.03030    1.000
    C169     C        0.46800    0.88686    0.92660    1.000
    C170     C        0.42680    0.77526    0.12730    1.000
    C171     C        0.49250    0.94793    0.17410    1.000
    C172     C        0.34271    0.92272    0.75190    1.000
    C173     C        0.32077    0.90890    0.81710    1.000
    C174     C        0.27190    0.88670    0.82230    1.000
    C175     C        0.24486    0.87404    0.76140    1.000
    C176     C        0.26650    0.88560    0.69590    1.000
    C177     C        0.31564    0.91180    0.69203    1.000
    C178     C        0.39575    0.94913    0.74834    1.000
    C179     C        0.24899    0.87512    0.89253    1.000
    H55      H        0.49110    0.94850    0.02800    1.000
    H56      H        0.46110    0.85820    0.19100    1.000
    H57      H        0.44200    0.80900    0.99500    1.000
    H58      H        0.33910    0.91530    0.85800    1.000
    H59      H        0.21170    0.85720    0.76500    1.000
    H60      H        0.33030    0.92020    0.64700    1.000
    C180     C        0.23838    0.86730    0.63020    1.000
    O119     O        0.25736    0.88035    0.57197    1.000
    O120     O        0.19564    0.83441    0.63448    1.000
    Co21     Co       0.14819    0.28461    0.14045    1.000
    Co22     Co       0.18405    0.31163    0.65908    1.000
    O121     O        0.14678    0.26091    0.23942    1.000
    O122     O        0.12257    0.18551    0.22203    1.000
    O123     O        0.15480    0.31524    0.48627    1.000
    O124     O        0.17342    0.27713    0.56673    1.000
    O125     O        0.07417    0.07682    0.41673    1.000
    O126     O        0.09617    0.10296    0.52423    1.000
    O127     O        0.08376    0.27967    0.13461    1.000
    O128     O        0.08017    0.30541    0.02704    1.000
    O129     O        0.87238    0.19457    0.23049    1.000
    O130     O        0.93937    0.21286    0.28024    1.000
    C181     C        0.13397    0.21258    0.33783    1.000
    C182     C        0.14701    0.24934    0.38473    1.000
    C183     C        0.14568    0.24143    0.45663    1.000
    C184     C        0.13001    0.19604    0.48143    1.000
    C185     C        0.11493    0.15838    0.43523    1.000
    C186     C        0.11767    0.16703    0.36363    1.000
    C187     C        0.13467    0.22019    0.25993    1.000
    C188     C        0.09347    0.10859    0.46063    1.000
    C189     C        0.15917    0.28126    0.50743    1.000
    C190     C        0.00938    0.25605    0.08523    1.000
    C191     C        0.98744    0.24223    0.15043    1.000
    C192     C        0.93857    0.22003    0.15563    1.000
    C193     C        0.91153    0.20737    0.09473    1.000
    C194     C        0.93317    0.21893    0.02923    1.000
    C195     C        0.98231    0.24513    0.02536    1.000
    C196     C        0.06242    0.28246    0.08167    1.000
    C197     C        0.91566    0.20845    0.22586    1.000
    H61      H        0.15777    0.28183    0.36133    1.000
    H62      H        0.12777    0.19153    0.52433    1.000
    H63      H        0.10867    0.14233    0.32833    1.000
    H64      H        0.00577    0.24863    0.19133    1.000
    H65      H        0.87837    0.19053    0.09833    1.000
    H66      H        0.99697    0.25353    0.98033    1.000
    C198     C        0.90505    0.20063    0.96353    1.000
    O131     O        0.92403    0.21368    0.90530    1.000
    O132     O        0.86231    0.16774    0.96781    1.000
    Co23     Co       0.81486    0.61795    0.47379    1.000
    Co24     Co       0.85071    0.64497    0.99242    1.000
    O133     O        0.81344    0.59425    0.57276    1.000
    O134     O        0.78923    0.51885    0.55537    1.000
    O135     O        0.82146    0.64858    0.81961    1.000
    O136     O        0.84008    0.61047    0.90007    1.000
    O137     O        0.74083    0.41016    0.75007    1.000
    O138     O        0.76283    0.43630    0.85757    1.000
    O139     O        0.75042    0.61301    0.46795    1.000
    O140     O        0.74683    0.63875    0.36038    1.000
    O141     O        0.53904    0.52791    0.56383    1.000
    O142     O        0.60603    0.54620    0.61358    1.000
    C199     C        0.80063    0.54592    0.67117    1.000
    C200     C        0.81367    0.58268    0.71807    1.000
    C201     C        0.81234    0.57477    0.78997    1.000
    C202     C        0.79667    0.52938    0.81477    1.000
    C203     C        0.78159    0.49172    0.76857    1.000
    C204     C        0.78433    0.50037    0.69697    1.000
    C205     C        0.80133    0.55353    0.59327    1.000
    C206     C        0.76013    0.44193    0.79397    1.000
    C207     C        0.82583    0.61460    0.84077    1.000
    C208     C        0.67604    0.58939    0.41857    1.000
    C209     C        0.65410    0.57557    0.48377    1.000
    C210     C        0.60523    0.55337    0.48897    1.000
    C211     C        0.57819    0.54071    0.42807    1.000
    C212     C        0.59983    0.55227    0.36257    1.000
    C213     C        0.64897    0.57847    0.35870    1.000
    C214     C        0.72908    0.61580    0.41501    1.000
    C215     C        0.58232    0.54179    0.55920    1.000
    H67      H        0.82443    0.61517    0.69467    1.000
    H68      H        0.79443    0.52487    0.85767    1.000
    H69      H        0.77533    0.47567    0.66167    1.000
    H70      H        0.67243    0.58197    0.52467    1.000
    H71      H        0.54503    0.52387    0.43167    1.000
    H72      H        0.66363    0.58687    0.31367    1.000
    C216     C        0.57171    0.53397    0.29687    1.000
    O143     O        0.59069    0.54702    0.23864    1.000
    O144     O        0.52897    0.50108    0.30115    1.000
    Co25     Co       0.04872    0.53024    0.80712    1.000
    Co26     Co       0.02170    0.53908    0.32575    1.000
    O145     O        0.07242    0.55253    0.90609    1.000
    O146     O        0.14782    0.60372    0.88870    1.000
    O147     O        0.01809    0.50622    0.15294    1.000
    O148     O        0.05620    0.56295    0.23340    1.000
    O149     O        0.25651    0.66401    0.08340    1.000
    O150     O        0.23037    0.65987    0.19090    1.000
    O151     O        0.05366    0.47075    0.80128    1.000
    O152     O        0.02792    0.44142    0.69371    1.000
    O153     O        0.13876    0.34447    0.89716    1.000
    O154     O        0.12047    0.39317    0.94691    1.000
    C217     C        0.12075    0.58805    0.00450    1.000
    C218     C        0.08399    0.56433    0.05140    1.000
    C219     C        0.09190    0.57091    0.12330    1.000
    C220     C        0.13729    0.60063    0.14810    1.000
    C221     C        0.17495    0.62321    0.10190    1.000
    C222     C        0.16630    0.61730    0.03030    1.000
    C223     C        0.11314    0.58114    0.92660    1.000
    C224     C        0.22474    0.65154    0.12730    1.000
    C225     C        0.05207    0.54457    0.17410    1.000
    C226     C        0.07728    0.41999    0.75190    1.000
    C227     C        0.09110    0.41187    0.81710    1.000
    C228     C        0.11330    0.38520    0.82230    1.000
    C229     C        0.12596    0.37082    0.76140    1.000
    C230     C        0.11440    0.38090    0.69590    1.000
    C231     C        0.08820    0.40384    0.69203    1.000
    C232     C        0.05087    0.44662    0.74834    1.000
    C233     C        0.12488    0.37387    0.89253    1.000
    H73      H        0.05150    0.54260    0.02800    1.000
    H74      H        0.14180    0.60290    0.19100    1.000
    H75      H        0.19100    0.63300    0.99500    1.000
    H76      H        0.08470    0.42380    0.85800    1.000
    H77      H        0.14280    0.35450    0.76500    1.000
    H78      H        0.07980    0.41010    0.64700    1.000
    C234     C        0.13270    0.37108    0.63020    1.000
    O155     O        0.11965    0.37701    0.57197    1.000
    O156     O        0.16559    0.36123    0.63448    1.000
    Co27     Co       0.71539    0.86358    0.14045    1.000
    Co28     Co       0.68837    0.87241    0.65908    1.000
    O157     O        0.73909    0.88586    0.23942    1.000
    O158     O        0.81449    0.93705    0.22203    1.000
    O159     O        0.68476    0.83955    0.48627    1.000
    O160     O        0.72287    0.89628    0.56673    1.000
    O161     O        0.92318    0.99734    0.41673    1.000
    O162     O        0.89704    0.99320    0.52423    1.000
    O163     O        0.72033    0.80408    0.13461    1.000
    O164     O        0.69459    0.77475    0.02704    1.000
    O165     O        0.80543    0.67780    0.23049    1.000
    O166     O        0.78714    0.72650    0.28024    1.000
    C235     C        0.78742    0.92138    0.33783    1.000
    C236     C        0.75066    0.89766    0.38473    1.000
    C237     C        0.75857    0.90424    0.45663    1.000
    C238     C        0.80396    0.93396    0.48143    1.000
    C239     C        0.84162    0.95654    0.43523    1.000
    C240     C        0.83297    0.95063    0.36363    1.000
    C241     C        0.77981    0.91447    0.25993    1.000
    C242     C        0.89141    0.98487    0.46063    1.000
    C243     C        0.71874    0.87790    0.50743    1.000
    C244     C        0.74395    0.75332    0.08523    1.000
    C245     C        0.75777    0.74520    0.15043    1.000
    C246     C        0.77997    0.71853    0.15563    1.000
    C247     C        0.79263    0.70415    0.09473    1.000
    C248     C        0.78107    0.71423    0.02923    1.000
    C249     C        0.75487    0.73717    0.02536    1.000
    C250     C        0.71754    0.77995    0.08167    1.000
    C251     C        0.79155    0.70720    0.22586    1.000
    H79      H        0.71817    0.87593    0.36133    1.000
    H80      H        0.80847    0.93623    0.52433    1.000
    H81      H        0.85767    0.96633    0.32833    1.000
    H82      H        0.75137    0.75713    0.19133    1.000
    H83      H        0.80947    0.68783    0.09833    1.000
    H84      H        0.74647    0.74343    0.98033    1.000
    C252     C        0.79937    0.70441    0.96353    1.000
    O167     O        0.78632    0.71034    0.90530    1.000
    O168     O        0.83226    0.69456    0.96781    1.000
    Co29     Co       0.38205    0.19691    0.47379    1.000
    Co30     Co       0.35503    0.20575    0.99242    1.000
    O169     O        0.40575    0.21920    0.57276    1.000
    O170     O        0.48115    0.27039    0.55537    1.000
    O171     O        0.35142    0.17289    0.81961    1.000
    O172     O        0.38953    0.22962    0.90007    1.000
    O173     O        0.58984    0.33068    0.75007    1.000
    O174     O        0.56370    0.32654    0.85757    1.000
    O175     O        0.38699    0.13742    0.46795    1.000
    O176     O        0.36125    0.10809    0.36038    1.000
    O177     O        0.47209    0.01114    0.56383    1.000
    O178     O        0.45380    0.05984    0.61358    1.000
    C253     C        0.45408    0.25472    0.67117    1.000
    C254     C        0.41732    0.23100    0.71807    1.000
    C255     C        0.42523    0.23758    0.78997    1.000
    C256     C        0.47062    0.26730    0.81477    1.000
    C257     C        0.50828    0.28988    0.76857    1.000
    C258     C        0.49963    0.28397    0.69697    1.000
    C259     C        0.44647    0.24781    0.59327    1.000
    C260     C        0.55807    0.31821    0.79397    1.000
    C261     C        0.38540    0.21124    0.84077    1.000
    C262     C        0.41061    0.08666    0.41857    1.000
    C263     C        0.42443    0.07854    0.48377    1.000
    C264     C        0.44663    0.05187    0.48897    1.000
    C265     C        0.45929    0.03749    0.42807    1.000
    C266     C        0.44773    0.04757    0.36257    1.000
    C267     C        0.42153    0.07051    0.35870    1.000
    C268     C        0.38420    0.11329    0.41501    1.000
    C269     C        0.45821    0.04054    0.55920    1.000
    H85      H        0.38483    0.20927    0.69467    1.000
    H86      H        0.47513    0.26957    0.85767    1.000
    H87      H        0.52433    0.29967    0.66167    1.000
    H88      H        0.41803    0.09047    0.52467    1.000
    H89      H        0.47613    0.02117    0.43167    1.000
    H90      H        0.41313    0.07677    0.31367    1.000
    C270     C        0.46603    0.03775    0.29687    1.000
    O179     O        0.45298    0.04368    0.23864    1.000
    O180     O        0.49892    0.02790    0.30115    1.000
    Co31     Co       0.46976    0.51848    0.80712    1.000
    Co32     Co       0.46092    0.48262    0.32575    1.000
    O181     O        0.44747    0.51989    0.90609    1.000
    O182     O        0.39628    0.54410    0.88870    1.000
    O183     O        0.49378    0.51187    0.15294    1.000
    O184     O        0.43705    0.49325    0.23340    1.000
    O185     O        0.33599    0.59250    0.08340    1.000
    O186     O        0.34013    0.57050    0.19090    1.000
    O187     O        0.52925    0.58291    0.80128    1.000
    O188     O        0.55858    0.58650    0.69371    1.000
    O189     O        0.65553    0.79429    0.89716    1.000
    O190     O        0.60683    0.72730    0.94691    1.000
    C271     C        0.41195    0.53270    0.00450    1.000
    C272     C        0.43567    0.51966    0.05140    1.000
    C273     C        0.42909    0.52099    0.12330    1.000
    C274     C        0.39937    0.53666    0.14810    1.000
    C275     C        0.37679    0.55174    0.10190    1.000
    C276     C        0.38270    0.54900    0.03030    1.000
    C277     C        0.41886    0.53200    0.92660    1.000
    C278     C        0.34846    0.57320    0.12730    1.000
    C279     C        0.45543    0.50750    0.17410    1.000
    C280     C        0.58001    0.65729    0.75190    1.000
    C281     C        0.58813    0.67923    0.81710    1.000
    C282     C        0.61480    0.72810    0.82230    1.000
    C283     C        0.62918    0.75514    0.76140    1.000
    C284     C        0.61910    0.73350    0.69590    1.000
    C285     C        0.59616    0.68436    0.69203    1.000
    C286     C        0.55338    0.60425    0.74834    1.000
    C287     C        0.62613    0.75101    0.89253    1.000
    H91      H        0.45740    0.50890    0.02800    1.000
    H92      H        0.39710    0.53890    0.19100    1.000
    H93      H        0.36700    0.55800    0.99500    1.000
    H94      H        0.57620    0.66090    0.85800    1.000
    H95      H        0.64550    0.78830    0.76500    1.000
    H96      H        0.58990    0.66970    0.64700    1.000
    C288     C        0.62892    0.76162    0.63020    1.000
    O191     O        0.62299    0.74264    0.57197    1.000
    O192     O        0.63877    0.80436    0.63448    1.000
    Co33     Co       0.13642    0.85181    0.14045    1.000
    Co34     Co       0.12759    0.81595    0.65908    1.000
    O193     O        0.11414    0.85322    0.23942    1.000
    O194     O        0.06295    0.87743    0.22203    1.000
    O195     O        0.16045    0.84520    0.48627    1.000
    O196     O        0.10372    0.82658    0.56673    1.000
    O197     O        0.00266    0.92583    0.41673    1.000
    O198     O        0.00680    0.90383    0.52423    1.000
    O199     O        0.19592    0.91624    0.13461    1.000
    O200     O        0.22525    0.91983    0.02704    1.000
    O201     O        0.32220    0.12762    0.23049    1.000
    O202     O        0.27350    0.06063    0.28024    1.000
    C289     C        0.07862    0.86603    0.33783    1.000
    C290     C        0.10234    0.85299    0.38473    1.000
    C291     C        0.09576    0.85432    0.45663    1.000
    C292     C        0.06604    0.86999    0.48143    1.000
    C293     C        0.04346    0.88507    0.43523    1.000
    C294     C        0.04937    0.88233    0.36363    1.000
    C295     C        0.08553    0.86533    0.25993    1.000
    C296     C        0.01513    0.90653    0.46063    1.000
    C297     C        0.12210    0.84083    0.50743    1.000
    C298     C        0.24668    0.99062    0.08523    1.000
    C299     C        0.25480    0.01256    0.15043    1.000
    C300     C        0.28147    0.06143    0.15563    1.000
    C301     C        0.29585    0.08847    0.09473    1.000
    C302     C        0.28577    0.06683    0.02923    1.000
    C303     C        0.26283    0.01769    0.02536    1.000
    C304     C        0.22005    0.93758    0.08167    1.000
    C305     C        0.29280    0.08434    0.22586    1.000
    H97      H        0.12407    0.84223    0.36133    1.000
    H98      H        0.06377    0.87223    0.52433    1.000
    H99      H        0.03367    0.89133    0.32833    1.000
    H100     H        0.24287    0.99423    0.19133    1.000
    H101     H        0.31217    0.12163    0.09833    1.000
    H102     H        0.25657    0.00303    0.98033    1.000
    C306     C        0.29559    0.09495    0.96353    1.000
    O203     O        0.28966    0.07597    0.90530    1.000
    O204     O        0.30544    0.13769    0.96781    1.000
    Co35     Co       0.80309    0.18514    0.47379    1.000
    Co36     Co       0.79425    0.14929    0.99242    1.000
    O205     O        0.78080    0.18656    0.57276    1.000
    O206     O        0.72961    0.21077    0.55537    1.000
    O207     O        0.82711    0.17854    0.81961    1.000
    O208     O        0.77038    0.15992    0.90007    1.000
    O209     O        0.66932    0.25917    0.75007    1.000
    O210     O        0.67346    0.23717    0.85757    1.000
    O211     O        0.86258    0.24958    0.46795    1.000
    O212     O        0.89191    0.25317    0.36038    1.000
    O213     O        0.98886    0.46096    0.56383    1.000
    O214     O        0.94016    0.39397    0.61358    1.000
    C307     C        0.74528    0.19937    0.67117    1.000
    C308     C        0.76900    0.18633    0.71807    1.000
    C309     C        0.76242    0.18766    0.78997    1.000
    C310     C        0.73270    0.20333    0.81477    1.000
    C311     C        0.71012    0.21841    0.76857    1.000
    C312     C        0.71603    0.21567    0.69697    1.000
    C313     C        0.75219    0.19867    0.59327    1.000
    C314     C        0.68179    0.23987    0.79397    1.000
    C315     C        0.78876    0.17417    0.84077    1.000
    C316     C        0.91334    0.32396    0.41857    1.000
    C317     C        0.92146    0.34590    0.48377    1.000
    C318     C        0.94813    0.39477    0.48897    1.000
    C319     C        0.96251    0.42181    0.42807    1.000
    C320     C        0.95243    0.40017    0.36257    1.000
    C321     C        0.92949    0.35103    0.35870    1.000
    C322     C        0.88671    0.27092    0.41501    1.000
    C323     C        0.95946    0.41768    0.55920    1.000
    H103     H        0.79073    0.17557    0.69467    1.000
    H104     H        0.73043    0.20557    0.85767    1.000
    H105     H        0.70033    0.22467    0.66167    1.000
    H106     H        0.90953    0.32757    0.52467    1.000
    H107     H        0.97883    0.45497    0.43167    1.000
    H108     H        0.92323    0.33637    0.31367    1.000
    C324     C        0.96225    0.42829    0.29687    1.000
    O215     O        0.95632    0.40931    0.23864    1.000
    O216     O        0.97210    0.47103    0.30115    1.000
