# CIF file generated by openbabel 3.1.0, see https://openbabel.org
data_I
_chemical_name_common 'DIDBEZ_clean'
_cell_length_a 12.7315
_cell_length_b 22.614
_cell_length_c 22.614
_cell_angle_alpha 90
_cell_angle_beta 90
_cell_angle_gamma 90
_space_group_name_H-M_alt 'P 1'
_space_group_name_Hall 'P 1'
loop_
    _symmetry_equiv_pos_as_xyz
    x,y,z
loop_
    _atom_site_label
    _atom_site_type_symbol
    _atom_site_fract_x
    _atom_site_fract_y
    _atom_site_fract_z
    _atom_site_occupancy
    Co1      Co       0.25249    0.73827    0.25624    1.000
    Co2      Co       0.25249    0.26173    0.74376    1.000
    Co3      Co       0.74751    0.76173    0.75624    1.000
    Co4      Co       0.74751    0.23827    0.24376    1.000
    H1       H        0.76240    0.35300    0.31410    1.000
    H2       H        0.66540    0.43610    0.33220    1.000
    H3       H        0.43880    0.37500    0.22560    1.000
    H4       H        0.53990    0.29090    0.21040    1.000
    H5       H        0.60980    0.52470    0.30300    1.000
    H6       H        0.51960    0.61450    0.30210    1.000
    H7       H        0.24790    0.52670    0.27290    1.000
    H8       H        0.34010    0.43920    0.27330    1.000
    H9       H        0.69060    0.73890    0.88610    1.000
    H10      H        0.77760    0.73550    0.97590    1.000
    H11      H        0.05220    0.72200    0.88760    1.000
    H12      H        0.95780    0.73200    0.80040    1.000
    H13      H        0.88010    0.77590    0.04710    1.000
    H14      H        0.97690    0.77640    0.13350    1.000
    H15      H        0.19590    0.67240    0.05860    1.000
    H16      H        0.10180    0.67530    0.97080    1.000
    H17      H        0.76240    0.64700    0.68590    1.000
    H18      H        0.66540    0.56390    0.66780    1.000
    H19      H        0.43880    0.62500    0.77440    1.000
    H20      H        0.53990    0.70910    0.78960    1.000
    H21      H        0.60980    0.47530    0.69700    1.000
    H22      H        0.51960    0.38550    0.69790    1.000
    H23      H        0.24790    0.47330    0.72710    1.000
    H24      H        0.34010    0.56080    0.72670    1.000
    H25      H        0.69060    0.26110    0.11390    1.000
    H26      H        0.77760    0.26450    0.02410    1.000
    H27      H        0.05220    0.27800    0.11240    1.000
    H28      H        0.95780    0.26800    0.19960    1.000
    H29      H        0.88010    0.22410    0.95290    1.000
    H30      H        0.97690    0.22360    0.86650    1.000
    H31      H        0.19590    0.32760    0.94140    1.000
    H32      H        0.10180    0.32470    0.02920    1.000
    H33      H        0.23760    0.14700    0.81410    1.000
    H34      H        0.33460    0.06390    0.83220    1.000
    H35      H        0.56120    0.12500    0.72560    1.000
    H36      H        0.46010    0.20910    0.71040    1.000
    H37      H        0.39020    0.97530    0.80300    1.000
    H38      H        0.48040    0.88550    0.80210    1.000
    H39      H        0.75210    0.97330    0.77290    1.000
    H40      H        0.65990    0.06080    0.77330    1.000
    H41      H        0.30940    0.76110    0.38610    1.000
    H42      H        0.22240    0.76450    0.47590    1.000
    H43      H        0.94780    0.77800    0.38760    1.000
    H44      H        0.04220    0.76800    0.30040    1.000
    H45      H        0.11990    0.72410    0.54710    1.000
    H46      H        0.02310    0.72360    0.63350    1.000
    H47      H        0.80410    0.82760    0.55860    1.000
    H48      H        0.89820    0.82470    0.47080    1.000
    H49      H        0.23760    0.85300    0.18590    1.000
    H50      H        0.33460    0.93610    0.16780    1.000
    H51      H        0.56120    0.87500    0.27440    1.000
    H52      H        0.46010    0.79090    0.28960    1.000
    H53      H        0.39020    0.02470    0.19700    1.000
    H54      H        0.48040    0.11450    0.19790    1.000
    H55      H        0.75210    0.02670    0.22710    1.000
    H56      H        0.65990    0.93920    0.22670    1.000
    H57      H        0.30940    0.23890    0.61390    1.000
    H58      H        0.22240    0.23550    0.52410    1.000
    H59      H        0.94780    0.22200    0.61240    1.000
    H60      H        0.04220    0.23200    0.69960    1.000
    H61      H        0.11990    0.27590    0.45290    1.000
    H62      H        0.02310    0.27640    0.36650    1.000
    H63      H        0.80410    0.17240    0.44140    1.000
    H64      H        0.89820    0.17530    0.52920    1.000
    C1       C        0.69590    0.35750    0.29550    1.000
    C2       C        0.63910    0.40710    0.30560    1.000
    C3       C        0.54370    0.41650    0.27810    1.000
    C4       C        0.50600    0.37170    0.24360    1.000
    C5       C        0.56670    0.32140    0.23500    1.000
    C6       C        0.48330    0.47320    0.28490    1.000
    C7       C        0.53640    0.52530    0.29570    1.000
    C8       C        0.48230    0.57860    0.29590    1.000
    C9       C        0.37770    0.58010    0.28730    1.000
    C10      C        0.32180    0.52670    0.27850    1.000
    C11      C        0.37720    0.47530    0.27830    1.000
    C12      C        0.31990    0.63850    0.28140    1.000
    C13      C        0.76520    0.73740    0.88660    1.000
    C14      C        0.81710    0.73370    0.94030    1.000
    C15      C        0.92270    0.72750    0.94320    1.000
    C16      C        0.97810    0.72660    0.88860    1.000
    C17      C        0.92070    0.73260    0.83680    1.000
    C18      C        0.98260    0.72530    0.00010    1.000
    C19      C        0.94510    0.75540    0.04910    1.000
    C20      C        0.00230    0.75540    0.10010    1.000
    C21      C        0.09620    0.72540    0.10400    1.000
    C22      C        0.13250    0.69440    0.05620    1.000
    C23      C        0.07560    0.69570    0.00440    1.000
    C24      C        0.16120    0.72850    0.15850    1.000
    C25      C        0.69590    0.64250    0.70450    1.000
    C26      C        0.63910    0.59290    0.69440    1.000
    C27      C        0.54370    0.58350    0.72190    1.000
    C28      C        0.50600    0.62830    0.75640    1.000
    C29      C        0.56670    0.67860    0.76500    1.000
    C30      C        0.48330    0.52680    0.71510    1.000
    C31      C        0.53640    0.47470    0.70430    1.000
    C32      C        0.48230    0.42140    0.70410    1.000
    C33      C        0.37770    0.41990    0.71270    1.000
    C34      C        0.32180    0.47330    0.72150    1.000
    C35      C        0.37720    0.52470    0.72170    1.000
    C36      C        0.31990    0.36150    0.71860    1.000
    C37      C        0.76520    0.26260    0.11340    1.000
    C38      C        0.81710    0.26630    0.05970    1.000
    C39      C        0.92270    0.27250    0.05680    1.000
    C40      C        0.97810    0.27340    0.11140    1.000
    C41      C        0.92070    0.26740    0.16320    1.000
    C42      C        0.98260    0.27470    0.99990    1.000
    C43      C        0.94510    0.24460    0.95090    1.000
    C44      C        0.00230    0.24460    0.89990    1.000
    C45      C        0.09620    0.27460    0.89600    1.000
    C46      C        0.13250    0.30560    0.94380    1.000
    C47      C        0.07560    0.30430    0.99560    1.000
    C48      C        0.16120    0.27150    0.84150    1.000
    C49      C        0.30410    0.14250    0.79550    1.000
    C50      C        0.36090    0.09290    0.80560    1.000
    C51      C        0.45630    0.08350    0.77810    1.000
    C52      C        0.49400    0.12830    0.74360    1.000
    C53      C        0.43330    0.17860    0.73500    1.000
    C54      C        0.51670    0.02680    0.78490    1.000
    C55      C        0.46360    0.97470    0.79570    1.000
    C56      C        0.51770    0.92140    0.79590    1.000
    C57      C        0.62230    0.91990    0.78730    1.000
    C58      C        0.67820    0.97330    0.77850    1.000
    C59      C        0.62280    0.02470    0.77830    1.000
    C60      C        0.68010    0.86150    0.78140    1.000
    C61      C        0.23480    0.76260    0.38660    1.000
    C62      C        0.18290    0.76630    0.44030    1.000
    C63      C        0.07730    0.77250    0.44320    1.000
    C64      C        0.02190    0.77340    0.38860    1.000
    C65      C        0.07930    0.76740    0.33680    1.000
    C66      C        0.01740    0.77470    0.50010    1.000
    C67      C        0.05490    0.74460    0.54910    1.000
    C68      C        0.99770    0.74460    0.60010    1.000
    C69      C        0.90380    0.77460    0.60400    1.000
    C70      C        0.86750    0.80560    0.55620    1.000
    C71      C        0.92440    0.80430    0.50440    1.000
    C72      C        0.83880    0.77150    0.65850    1.000
    C73      C        0.30410    0.85750    0.20450    1.000
    C74      C        0.36090    0.90710    0.19440    1.000
    C75      C        0.45630    0.91650    0.22190    1.000
    C76      C        0.49400    0.87170    0.25640    1.000
    C77      C        0.43330    0.82140    0.26500    1.000
    C78      C        0.51670    0.97320    0.21510    1.000
    C79      C        0.46360    0.02530    0.20430    1.000
    C80      C        0.51770    0.07860    0.20410    1.000
    C81      C        0.62230    0.08010    0.21270    1.000
    C82      C        0.67820    0.02670    0.22150    1.000
    C83      C        0.62280    0.97530    0.22170    1.000
    C84      C        0.68010    0.13850    0.21860    1.000
    C85      C        0.23480    0.23740    0.61340    1.000
    C86      C        0.18290    0.23370    0.55970    1.000
    C87      C        0.07730    0.22750    0.55680    1.000
    C88      C        0.02190    0.22660    0.61140    1.000
    C89      C        0.07930    0.23260    0.66320    1.000
    C90      C        0.01740    0.22530    0.49990    1.000
    C91      C        0.05490    0.25540    0.45090    1.000
    C92      C        0.99770    0.25540    0.39990    1.000
    C93      C        0.90380    0.22540    0.39600    1.000
    C94      C        0.86750    0.19440    0.44380    1.000
    C95      C        0.92440    0.19570    0.49560    1.000
    C96      C        0.83880    0.22850    0.34150    1.000
    N1       N        0.65970    0.31410    0.25930    1.000
    N2       N        0.81820    0.73900    0.83510    1.000
    N3       N        0.65970    0.68590    0.74070    1.000
    N4       N        0.81820    0.26100    0.16490    1.000
    N5       N        0.34030    0.18590    0.75930    1.000
    N6       N        0.18180    0.76100    0.33510    1.000
    N7       N        0.34030    0.81410    0.24070    1.000
    N8       N        0.18180    0.23900    0.66490    1.000
    O1       O        0.37410    0.68570    0.28190    1.000
    O2       O        0.22180    0.64010    0.27560    1.000
    O3       O        0.25340    0.71030    0.15990    1.000
    O4       O        0.12160    0.75450    0.20440    1.000
    O5       O        0.37410    0.31430    0.71810    1.000
    O6       O        0.22180    0.35990    0.72440    1.000
    O7       O        0.25340    0.28970    0.84010    1.000
    O8       O        0.12160    0.24550    0.79560    1.000
    O9       O        0.62590    0.81430    0.78190    1.000
    O10      O        0.77820    0.85990    0.77560    1.000
    O11      O        0.74660    0.78970    0.65990    1.000
    O12      O        0.87840    0.74550    0.70440    1.000
    O13      O        0.62590    0.18570    0.21810    1.000
    O14      O        0.77820    0.14010    0.22440    1.000
    O15      O        0.74660    0.21030    0.34010    1.000
    O16      O        0.87840    0.25450    0.29560    1.000
    Co5      Co       0.25249    0.24376    0.23827    1.000
    Co6      Co       0.25249    0.75624    0.76173    1.000
    Co7      Co       0.74751    0.25624    0.73827    1.000
    Co8      Co       0.74751    0.74376    0.26173    1.000
    H65      H        0.76240    0.18590    0.85300    1.000
    H66      H        0.66540    0.16780    0.93610    1.000
    H67      H        0.43880    0.27440    0.87500    1.000
    H68      H        0.53990    0.28960    0.79090    1.000
    H69      H        0.60980    0.19700    0.02470    1.000
    H70      H        0.51960    0.19790    0.11450    1.000
    H71      H        0.24790    0.22710    0.02670    1.000
    H72      H        0.34010    0.22670    0.93920    1.000
    H73      H        0.69060    0.61390    0.23890    1.000
    H74      H        0.77760    0.52410    0.23550    1.000
    H75      H        0.05220    0.61240    0.22200    1.000
    H76      H        0.95780    0.69960    0.23200    1.000
    H77      H        0.88010    0.45290    0.27590    1.000
    H78      H        0.97690    0.36650    0.27640    1.000
    H79      H        0.19590    0.44140    0.17240    1.000
    H80      H        0.10180    0.52920    0.17530    1.000
    H81      H        0.76240    0.81410    0.14700    1.000
    H82      H        0.66540    0.83220    0.06390    1.000
    H83      H        0.43880    0.72560    0.12500    1.000
    H84      H        0.53990    0.71040    0.20910    1.000
    H85      H        0.60980    0.80300    0.97530    1.000
    H86      H        0.51960    0.80210    0.88550    1.000
    H87      H        0.24790    0.77290    0.97330    1.000
    H88      H        0.34010    0.77330    0.06080    1.000
    H89      H        0.69060    0.38610    0.76110    1.000
    H90      H        0.77760    0.47590    0.76450    1.000
    H91      H        0.05220    0.38760    0.77800    1.000
    H92      H        0.95780    0.30040    0.76800    1.000
    H93      H        0.88010    0.54710    0.72410    1.000
    H94      H        0.97690    0.63350    0.72360    1.000
    H95      H        0.19590    0.55860    0.82760    1.000
    H96      H        0.10180    0.47080    0.82470    1.000
    H97      H        0.23760    0.31410    0.35300    1.000
    H98      H        0.33460    0.33220    0.43610    1.000
    H99      H        0.56120    0.22560    0.37500    1.000
    H100     H        0.46010    0.21040    0.29090    1.000
    H101     H        0.39020    0.30300    0.52470    1.000
    H102     H        0.48040    0.30210    0.61450    1.000
    H103     H        0.75210    0.27290    0.52670    1.000
    H104     H        0.65990    0.27330    0.43920    1.000
    H105     H        0.30940    0.88610    0.73890    1.000
    H106     H        0.22240    0.97590    0.73550    1.000
    H107     H        0.94780    0.88760    0.72200    1.000
    H108     H        0.04220    0.80040    0.73200    1.000
    H109     H        0.11990    0.04710    0.77590    1.000
    H110     H        0.02310    0.13350    0.77640    1.000
    H111     H        0.80410    0.05860    0.67240    1.000
    H112     H        0.89820    0.97080    0.67530    1.000
    H113     H        0.23760    0.68590    0.64700    1.000
    H114     H        0.33460    0.66780    0.56390    1.000
    H115     H        0.56120    0.77440    0.62500    1.000
    H116     H        0.46010    0.78960    0.70910    1.000
    H117     H        0.39020    0.69700    0.47530    1.000
    H118     H        0.48040    0.69790    0.38550    1.000
    H119     H        0.75210    0.72710    0.47330    1.000
    H120     H        0.65990    0.72670    0.56080    1.000
    H121     H        0.30940    0.11390    0.26110    1.000
    H122     H        0.22240    0.02410    0.26450    1.000
    H123     H        0.94780    0.11240    0.27800    1.000
    H124     H        0.04220    0.19960    0.26800    1.000
    H125     H        0.11990    0.95290    0.22410    1.000
    H126     H        0.02310    0.86650    0.22360    1.000
    H127     H        0.80410    0.94140    0.32760    1.000
    H128     H        0.89820    0.02920    0.32470    1.000
    C97      C        0.69590    0.20450    0.85750    1.000
    C98      C        0.63910    0.19440    0.90710    1.000
    C99      C        0.54370    0.22190    0.91650    1.000
    C100     C        0.50600    0.25640    0.87170    1.000
    C101     C        0.56670    0.26500    0.82140    1.000
    C102     C        0.48330    0.21510    0.97320    1.000
    C103     C        0.53640    0.20430    0.02530    1.000
    C104     C        0.48230    0.20410    0.07860    1.000
    C105     C        0.37770    0.21270    0.08010    1.000
    C106     C        0.32180    0.22150    0.02670    1.000
    C107     C        0.37720    0.22170    0.97530    1.000
    C108     C        0.31990    0.21860    0.13850    1.000
    C109     C        0.76520    0.61340    0.23740    1.000
    C110     C        0.81710    0.55970    0.23370    1.000
    C111     C        0.92270    0.55680    0.22750    1.000
    C112     C        0.97810    0.61140    0.22660    1.000
    C113     C        0.92070    0.66320    0.23260    1.000
    C114     C        0.98260    0.49990    0.22530    1.000
    C115     C        0.94510    0.45090    0.25540    1.000
    C116     C        0.00230    0.39990    0.25540    1.000
    C117     C        0.09620    0.39600    0.22540    1.000
    C118     C        0.13250    0.44380    0.19440    1.000
    C119     C        0.07560    0.49560    0.19570    1.000
    C120     C        0.16120    0.34150    0.22850    1.000
    C121     C        0.69590    0.79550    0.14250    1.000
    C122     C        0.63910    0.80560    0.09290    1.000
    C123     C        0.54370    0.77810    0.08350    1.000
    C124     C        0.50600    0.74360    0.12830    1.000
    C125     C        0.56670    0.73500    0.17860    1.000
    C126     C        0.48330    0.78490    0.02680    1.000
    C127     C        0.53640    0.79570    0.97470    1.000
    C128     C        0.48230    0.79590    0.92140    1.000
    C129     C        0.37770    0.78730    0.91990    1.000
    C130     C        0.32180    0.77850    0.97330    1.000
    C131     C        0.37720    0.77830    0.02470    1.000
    C132     C        0.31990    0.78140    0.86150    1.000
    C133     C        0.76520    0.38660    0.76260    1.000
    C134     C        0.81710    0.44030    0.76630    1.000
    C135     C        0.92270    0.44320    0.77250    1.000
    C136     C        0.97810    0.38860    0.77340    1.000
    C137     C        0.92070    0.33680    0.76740    1.000
    C138     C        0.98260    0.50010    0.77470    1.000
    C139     C        0.94510    0.54910    0.74460    1.000
    C140     C        0.00230    0.60010    0.74460    1.000
    C141     C        0.09620    0.60400    0.77460    1.000
    C142     C        0.13250    0.55620    0.80560    1.000
    C143     C        0.07560    0.50440    0.80430    1.000
    C144     C        0.16120    0.65850    0.77150    1.000
    C145     C        0.30410    0.29550    0.35750    1.000
    C146     C        0.36090    0.30560    0.40710    1.000
    C147     C        0.45630    0.27810    0.41650    1.000
    C148     C        0.49400    0.24360    0.37170    1.000
    C149     C        0.43330    0.23500    0.32140    1.000
    C150     C        0.51670    0.28490    0.47320    1.000
    C151     C        0.46360    0.29570    0.52530    1.000
    C152     C        0.51770    0.29590    0.57860    1.000
    C153     C        0.62230    0.28730    0.58010    1.000
    C154     C        0.67820    0.27850    0.52670    1.000
    C155     C        0.62280    0.27830    0.47530    1.000
    C156     C        0.68010    0.28140    0.63850    1.000
    C157     C        0.23480    0.88660    0.73740    1.000
    C158     C        0.18290    0.94030    0.73370    1.000
    C159     C        0.07730    0.94320    0.72750    1.000
    C160     C        0.02190    0.88860    0.72660    1.000
    C161     C        0.07930    0.83680    0.73260    1.000
    C162     C        0.01740    0.00010    0.72530    1.000
    C163     C        0.05490    0.04910    0.75540    1.000
    C164     C        0.99770    0.10010    0.75540    1.000
    C165     C        0.90380    0.10400    0.72540    1.000
    C166     C        0.86750    0.05620    0.69440    1.000
    C167     C        0.92440    0.00440    0.69570    1.000
    C168     C        0.83880    0.15850    0.72850    1.000
    C169     C        0.30410    0.70450    0.64250    1.000
    C170     C        0.36090    0.69440    0.59290    1.000
    C171     C        0.45630    0.72190    0.58350    1.000
    C172     C        0.49400    0.75640    0.62830    1.000
    C173     C        0.43330    0.76500    0.67860    1.000
    C174     C        0.51670    0.71510    0.52680    1.000
    C175     C        0.46360    0.70430    0.47470    1.000
    C176     C        0.51770    0.70410    0.42140    1.000
    C177     C        0.62230    0.71270    0.41990    1.000
    C178     C        0.67820    0.72150    0.47330    1.000
    C179     C        0.62280    0.72170    0.52470    1.000
    C180     C        0.68010    0.71860    0.36150    1.000
    C181     C        0.23480    0.11340    0.26260    1.000
    C182     C        0.18290    0.05970    0.26630    1.000
    C183     C        0.07730    0.05680    0.27250    1.000
    C184     C        0.02190    0.11140    0.27340    1.000
    C185     C        0.07930    0.16320    0.26740    1.000
    C186     C        0.01740    0.99990    0.27470    1.000
    C187     C        0.05490    0.95090    0.24460    1.000
    C188     C        0.99770    0.89990    0.24460    1.000
    C189     C        0.90380    0.89600    0.27460    1.000
    C190     C        0.86750    0.94380    0.30560    1.000
    C191     C        0.92440    0.99560    0.30430    1.000
    C192     C        0.83880    0.84150    0.27150    1.000
    N9       N        0.65970    0.24070    0.81410    1.000
    N10      N        0.81820    0.66490    0.23900    1.000
    N11      N        0.65970    0.75930    0.18590    1.000
    N12      N        0.81820    0.33510    0.76100    1.000
    N13      N        0.34030    0.25930    0.31410    1.000
    N14      N        0.18180    0.83510    0.73900    1.000
    N15      N        0.34030    0.74070    0.68590    1.000
    N16      N        0.18180    0.16490    0.26100    1.000
    O17      O        0.37410    0.21810    0.18570    1.000
    O18      O        0.22180    0.22440    0.14010    1.000
    O19      O        0.25340    0.34010    0.21030    1.000
    O20      O        0.12160    0.29560    0.25450    1.000
    O21      O        0.37410    0.78190    0.81430    1.000
    O22      O        0.22180    0.77560    0.85990    1.000
    O23      O        0.25340    0.65990    0.78970    1.000
    O24      O        0.12160    0.70440    0.74550    1.000
    O25      O        0.62590    0.28190    0.68570    1.000
    O26      O        0.77820    0.27560    0.64010    1.000
    O27      O        0.74660    0.15990    0.71030    1.000
    O28      O        0.87840    0.20440    0.75450    1.000
    O29      O        0.62590    0.71810    0.31430    1.000
    O30      O        0.77820    0.72440    0.35990    1.000
    O31      O        0.74660    0.84010    0.28970    1.000
    O32      O        0.87840    0.79560    0.24550    1.000
