# CIF file generated by openbabel 3.1.0, see https://openbabel.org
data_I
_chemical_name_common 'image0'
_cell_length_a 25.481
_cell_length_b 22.483
_cell_length_c 17.233
_cell_angle_alpha 90
_cell_angle_beta 92.696
_cell_angle_gamma 90
_space_group_name_H-M_alt 'P 1'
_space_group_name_Hall 'P 1'
loop_
    _symmetry_equiv_pos_as_xyz
    x,y,z
loop_
    _atom_site_label
    _atom_site_type_symbol
    _atom_site_fract_x
    _atom_site_fract_y
    _atom_site_fract_z
    _atom_site_occupancy
    Zn1      Zn       0.13300    0.07000    0.30800    1.000
    O1       O        0.71000    0.59000    0.19000    1.000
    O2       O        0.69000    0.63000    0.30000    1.000
    O3       O        0.06000    0.89000    0.30000    1.000
    O4       O        0.03000    0.93000    0.19000    1.000
    O5       O        0.13000    0.95000    0.42000    1.000
    C1       C        0.72000    0.63000    0.24000    1.000
    C2       C        0.76000    0.67000    0.24000    1.000
    C3       C        0.76000    0.71000    0.30000    1.000
    H1       H        0.73980    0.71650    0.33980    1.000
    C4       C        0.81000    0.75000    0.30000    1.000
    C5       C        0.84000    0.75000    0.25000    1.000
    C6       C        0.84000    0.70000    0.19000    1.000
    C7       C        0.80000    0.67000    0.19000    1.000
    H2       H        0.79090    0.63670    0.14640    1.000
    C8       C        0.89000    0.79000    0.25000    1.000
    C9       C        0.90000    0.82000    0.18000    1.000
    H3       H        0.88020    0.81580    0.13420    1.000
    C10      C        0.95000    0.85000    0.18000    1.000
    H4       H        0.95490    0.87620    0.13430    1.000
    C11      C        0.98000    0.86000    0.25000    1.000
    C12      C        0.97000    0.83000    0.31000    1.000
    H5       H        0.99230    0.82790    0.35660    1.000
    C13      C        0.93000    0.79000    0.31000    1.000
    H6       H        0.91750    0.76740    0.35650    1.000
    C14      C        0.03000    0.89000    0.24000    1.000
    C15      C        0.09300    0.02000    0.90000    1.000
    H7       H        0.06250    0.03480    0.92420    1.000
    C16      C        0.09600    0.02000    0.82000    1.000
    H8       H        0.06750    0.03480    0.78900    1.000
    C17      C        0.18000    0.98000    0.83000    1.000
    C18      C        0.18000    0.98000    0.91000    1.000
    H9       H        0.20920    0.96520    0.94630    1.000
    C19      C        0.14000    0.95000    0.66000    1.000
    H10      H        0.13930    0.90900    0.68690    1.000
    C20      C        0.14000    0.95000    0.58000    1.000
    H11      H        0.13970    0.91120    0.55030    1.000
    C21      C        0.22000    0.95000    0.79300    1.000
    H12      H        0.22020    0.94880    0.73860    1.000
    C22      C        0.30790    0.82050    0.82750    1.000
    C23      C        0.34940    0.78980    0.79660    1.000
    C24      C        0.36950    0.73920    0.83370    1.000
    H13      H        0.39780    0.71820    0.81250    1.000
    C25      C        0.34810    0.71940    0.90180    1.000
    C26      C        0.30660    0.75010    0.93280    1.000
    H14      H        0.29200    0.73660    0.97930    1.000
    C27      C        0.28650    0.80070    0.89560    1.000
    H15      H        0.25820    0.82170    0.91680    1.000
    C28      C        0.81240    0.80740    0.35550    1.000
    C29      C        0.38080    0.19040    0.12300    1.000
    O6       O        0.34930    0.65660    0.98490    1.000
    O7       O        0.39990    0.64180    0.90830    1.000
    O8       O        0.37500    0.87070    0.72400    1.000
    O9       O        0.40180    0.78510    0.67770    1.000
    N1       N        0.24870    0.90790    0.83210    1.000
    N2       N        0.28150    0.87050    0.79680    1.000
    H16      H        0.28710    0.87870    0.74800    1.000
    N3       N        0.36580    0.67260    0.93170    1.000
    N4       N        0.37480    0.81360    0.72610    1.000
    Zn2      Zn       0.63300    0.57000    0.30800    1.000
    O10      O        0.21000    0.09000    0.19000    1.000
    O11      O        0.19000    0.13000    0.30000    1.000
    O12      O        0.56000    0.39000    0.30000    1.000
    O13      O        0.53000    0.43000    0.19000    1.000
    O14      O        0.63000    0.45000    0.42000    1.000
    C30      C        0.22000    0.13000    0.24000    1.000
    C31      C        0.26000    0.17000    0.24000    1.000
    C32      C        0.26000    0.21000    0.30000    1.000
    H17      H        0.23980    0.21650    0.33980    1.000
    C33      C        0.31000    0.25000    0.30000    1.000
    C34      C        0.34000    0.25000    0.25000    1.000
    C35      C        0.34000    0.20000    0.19000    1.000
    C36      C        0.30000    0.17000    0.19000    1.000
    H18      H        0.29090    0.13670    0.14640    1.000
    C37      C        0.39000    0.29000    0.25000    1.000
    C38      C        0.40000    0.32000    0.18000    1.000
    H19      H        0.38020    0.31580    0.13420    1.000
    C39      C        0.45000    0.35000    0.18000    1.000
    H20      H        0.45490    0.37620    0.13430    1.000
    C40      C        0.48000    0.36000    0.25000    1.000
    C41      C        0.47000    0.33000    0.31000    1.000
    H21      H        0.49230    0.32790    0.35660    1.000
    C42      C        0.43000    0.29000    0.31000    1.000
    H22      H        0.41750    0.26740    0.35650    1.000
    C43      C        0.53000    0.39000    0.24000    1.000
    C44      C        0.59300    0.52000    0.90000    1.000
    H23      H        0.56250    0.53480    0.92420    1.000
    C45      C        0.59600    0.52000    0.82000    1.000
    H24      H        0.56750    0.53480    0.78900    1.000
    C46      C        0.68000    0.48000    0.83000    1.000
    C47      C        0.68000    0.48000    0.91000    1.000
    H25      H        0.70920    0.46520    0.94630    1.000
    C48      C        0.64000    0.45000    0.66000    1.000
    H26      H        0.63930    0.40900    0.68690    1.000
    C49      C        0.64000    0.45000    0.58000    1.000
    H27      H        0.63970    0.41120    0.55030    1.000
    C50      C        0.72000    0.45000    0.79300    1.000
    H28      H        0.72020    0.44880    0.73860    1.000
    C51      C        0.80790    0.32050    0.82750    1.000
    C52      C        0.84940    0.28980    0.79660    1.000
    C53      C        0.86950    0.23920    0.83370    1.000
    H29      H        0.89780    0.21820    0.81250    1.000
    C54      C        0.84810    0.21940    0.90180    1.000
    C55      C        0.80660    0.25010    0.93280    1.000
    H30      H        0.79200    0.23660    0.97930    1.000
    C56      C        0.78650    0.30070    0.89560    1.000
    H31      H        0.75820    0.32170    0.91680    1.000
    C57      C        0.31240    0.30740    0.35550    1.000
    C58      C        0.88080    0.69040    0.12300    1.000
    O15      O        0.84930    0.15660    0.98490    1.000
    O16      O        0.89990    0.14180    0.90830    1.000
    O17      O        0.87500    0.37070    0.72400    1.000
    O18      O        0.90180    0.28510    0.67770    1.000
    N5       N        0.74870    0.40790    0.83210    1.000
    N6       N        0.78150    0.37050    0.79680    1.000
    H32      H        0.78710    0.37870    0.74800    1.000
    N7       N        0.86580    0.17260    0.93170    1.000
    N8       N        0.87480    0.31360    0.72610    1.000
    Zn3      Zn       0.13300    0.93000    0.30800    1.000
    O19      O        0.71000    0.41000    0.19000    1.000
    O20      O        0.69000    0.37000    0.30000    1.000
    O21      O        0.06000    0.11000    0.30000    1.000
    O22      O        0.03000    0.07000    0.19000    1.000
    O23      O        0.13000    0.05000    0.42000    1.000
    C59      C        0.72000    0.37000    0.24000    1.000
    C60      C        0.76000    0.33000    0.24000    1.000
    C61      C        0.76000    0.29000    0.30000    1.000
    H33      H        0.73980    0.28350    0.33980    1.000
    C62      C        0.81000    0.25000    0.30000    1.000
    C63      C        0.84000    0.25000    0.25000    1.000
    C64      C        0.84000    0.30000    0.19000    1.000
    C65      C        0.80000    0.33000    0.19000    1.000
    H34      H        0.79090    0.36330    0.14640    1.000
    C66      C        0.89000    0.21000    0.25000    1.000
    C67      C        0.90000    0.18000    0.18000    1.000
    H35      H        0.88020    0.18420    0.13420    1.000
    C68      C        0.95000    0.15000    0.18000    1.000
    H36      H        0.95490    0.12380    0.13430    1.000
    C69      C        0.98000    0.14000    0.25000    1.000
    C70      C        0.97000    0.17000    0.31000    1.000
    H37      H        0.99230    0.17210    0.35660    1.000
    C71      C        0.93000    0.21000    0.31000    1.000
    H38      H        0.91750    0.23260    0.35650    1.000
    C72      C        0.03000    0.11000    0.24000    1.000
    C73      C        0.09300    0.98000    0.90000    1.000
    H39      H        0.06250    0.96520    0.92420    1.000
    C74      C        0.09600    0.98000    0.82000    1.000
    H40      H        0.06750    0.96520    0.78900    1.000
    C75      C        0.18000    0.02000    0.83000    1.000
    C76      C        0.18000    0.02000    0.91000    1.000
    H41      H        0.20920    0.03480    0.94630    1.000
    C77      C        0.14000    0.05000    0.66000    1.000
    H42      H        0.13930    0.09100    0.68690    1.000
    C78      C        0.14000    0.05000    0.58000    1.000
    H43      H        0.13970    0.08880    0.55030    1.000
    C79      C        0.22000    0.05000    0.79300    1.000
    H44      H        0.22020    0.05120    0.73860    1.000
    C80      C        0.30790    0.17950    0.82750    1.000
    C81      C        0.34940    0.21020    0.79660    1.000
    C82      C        0.36950    0.26080    0.83370    1.000
    H45      H        0.39780    0.28180    0.81250    1.000
    C83      C        0.34810    0.28060    0.90180    1.000
    C84      C        0.30660    0.24990    0.93280    1.000
    H46      H        0.29200    0.26340    0.97930    1.000
    C85      C        0.28650    0.19930    0.89560    1.000
    H47      H        0.25820    0.17830    0.91680    1.000
    C86      C        0.81240    0.19260    0.35550    1.000
    C87      C        0.38080    0.80960    0.12300    1.000
    O24      O        0.34930    0.34340    0.98490    1.000
    O25      O        0.39990    0.35820    0.90830    1.000
    O26      O        0.37500    0.12930    0.72400    1.000
    O27      O        0.40180    0.21490    0.67770    1.000
    N9       N        0.24870    0.09210    0.83210    1.000
    N10      N        0.28150    0.12950    0.79680    1.000
    H48      H        0.28710    0.12130    0.74800    1.000
    N11      N        0.36580    0.32740    0.93170    1.000
    N12      N        0.37480    0.18640    0.72610    1.000
    Zn4      Zn       0.63300    0.43000    0.30800    1.000
    O28      O        0.21000    0.91000    0.19000    1.000
    O29      O        0.19000    0.87000    0.30000    1.000
    O30      O        0.56000    0.61000    0.30000    1.000
    O31      O        0.53000    0.57000    0.19000    1.000
    O32      O        0.63000    0.55000    0.42000    1.000
    C88      C        0.22000    0.87000    0.24000    1.000
    C89      C        0.26000    0.83000    0.24000    1.000
    C90      C        0.26000    0.79000    0.30000    1.000
    H49      H        0.23980    0.78350    0.33980    1.000
    C91      C        0.31000    0.75000    0.30000    1.000
    C92      C        0.34000    0.75000    0.25000    1.000
    C93      C        0.34000    0.80000    0.19000    1.000
    C94      C        0.30000    0.83000    0.19000    1.000
    H50      H        0.29090    0.86330    0.14640    1.000
    C95      C        0.39000    0.71000    0.25000    1.000
    C96      C        0.40000    0.68000    0.18000    1.000
    H51      H        0.38020    0.68420    0.13420    1.000
    C97      C        0.45000    0.65000    0.18000    1.000
    H52      H        0.45490    0.62380    0.13430    1.000
    C98      C        0.48000    0.64000    0.25000    1.000
    C99      C        0.47000    0.67000    0.31000    1.000
    H53      H        0.49230    0.67210    0.35660    1.000
    C100     C        0.43000    0.71000    0.31000    1.000
    H54      H        0.41750    0.73260    0.35650    1.000
    C101     C        0.53000    0.61000    0.24000    1.000
    C102     C        0.59300    0.48000    0.90000    1.000
    H55      H        0.56250    0.46520    0.92420    1.000
    C103     C        0.59600    0.48000    0.82000    1.000
    H56      H        0.56750    0.46520    0.78900    1.000
    C104     C        0.68000    0.52000    0.83000    1.000
    C105     C        0.68000    0.52000    0.91000    1.000
    H57      H        0.70920    0.53480    0.94630    1.000
    C106     C        0.64000    0.55000    0.66000    1.000
    H58      H        0.63930    0.59100    0.68690    1.000
    C107     C        0.64000    0.55000    0.58000    1.000
    H59      H        0.63970    0.58880    0.55030    1.000
    C108     C        0.72000    0.55000    0.79300    1.000
    H60      H        0.72020    0.55120    0.73860    1.000
    C109     C        0.80790    0.67950    0.82750    1.000
    C110     C        0.84940    0.71020    0.79660    1.000
    C111     C        0.86950    0.76080    0.83370    1.000
    H61      H        0.89780    0.78180    0.81250    1.000
    C112     C        0.84810    0.78060    0.90180    1.000
    C113     C        0.80660    0.74990    0.93280    1.000
    H62      H        0.79200    0.76340    0.97930    1.000
    C114     C        0.78650    0.69930    0.89560    1.000
    H63      H        0.75820    0.67830    0.91680    1.000
    C115     C        0.31240    0.69260    0.35550    1.000
    C116     C        0.88080    0.30960    0.12300    1.000
    O33      O        0.84930    0.84340    0.98490    1.000
    O34      O        0.89990    0.85820    0.90830    1.000
    O35      O        0.87500    0.62930    0.72400    1.000
    O36      O        0.90180    0.71490    0.67770    1.000
    N13      N        0.74870    0.59210    0.83210    1.000
    N14      N        0.78150    0.62950    0.79680    1.000
    H64      H        0.78710    0.62130    0.74800    1.000
    N15      N        0.86580    0.82740    0.93170    1.000
    N16      N        0.87480    0.68640    0.72610    1.000
    Zn5      Zn       0.07600    0.00000    0.17000    1.000
    Zn6      Zn       0.20200    0.00000    0.18600    1.000
    O37      O        0.14000    0.00000    0.24000    1.000
    O38      O        0.09000    0.00000    0.06000    1.000
    O39      O        0.17000    0.00000    0.07000    1.000
    C117     C        0.13000    0.00000    0.03000    1.000
    C118     C        0.14000    0.00000    0.95000    1.000
    C119     C        0.14100    0.00000    0.79000    1.000
    C120     C        0.14200    0.00000    0.70000    1.000
    C121     C        0.14000    0.00000    0.54000    1.000
    C122     C        0.14000    0.00000    0.45000    1.000
    Zn7      Zn       0.57600    0.50000    0.17000    1.000
    Zn8      Zn       0.70200    0.50000    0.18600    1.000
    O40      O        0.64000    0.50000    0.24000    1.000
    O41      O        0.59000    0.50000    0.06000    1.000
    O42      O        0.67000    0.50000    0.07000    1.000
    C123     C        0.63000    0.50000    0.03000    1.000
    C124     C        0.64000    0.50000    0.95000    1.000
    C125     C        0.64100    0.50000    0.79000    1.000
    C126     C        0.64200    0.50000    0.70000    1.000
    C127     C        0.64000    0.50000    0.54000    1.000
    C128     C        0.64000    0.50000    0.45000    1.000
    Zn9      Zn       0.86700    0.07000    0.69200    1.000
    O43      O        0.29000    0.59000    0.81000    1.000
    O44      O        0.31000    0.63000    0.70000    1.000
    O45      O        0.94000    0.89000    0.70000    1.000
    O46      O        0.97000    0.93000    0.81000    1.000
    O47      O        0.87000    0.95000    0.58000    1.000
    C129     C        0.28000    0.63000    0.76000    1.000
    C130     C        0.24000    0.67000    0.76000    1.000
    C131     C        0.24000    0.71000    0.70000    1.000
    H65      H        0.26020    0.71650    0.66020    1.000
    C132     C        0.19000    0.75000    0.70000    1.000
    C133     C        0.16000    0.75000    0.75000    1.000
    C134     C        0.16000    0.70000    0.81000    1.000
    C135     C        0.20000    0.67000    0.81000    1.000
    H66      H        0.20910    0.63670    0.85360    1.000
    C136     C        0.11000    0.79000    0.75000    1.000
    C137     C        0.10000    0.82000    0.82000    1.000
    H67      H        0.11980    0.81580    0.86580    1.000
    C138     C        0.05000    0.85000    0.82000    1.000
    H68      H        0.04510    0.87620    0.86570    1.000
    C139     C        0.02000    0.86000    0.75000    1.000
    C140     C        0.03000    0.83000    0.69000    1.000
    H69      H        0.00770    0.82790    0.64340    1.000
    C141     C        0.07000    0.79000    0.69000    1.000
    H70      H        0.08250    0.76740    0.64350    1.000
    C142     C        0.97000    0.89000    0.76000    1.000
    C143     C        0.90700    0.02000    0.10000    1.000
    H71      H        0.93750    0.03480    0.07580    1.000
    C144     C        0.90400    0.02000    0.18000    1.000
    H72      H        0.93250    0.03480    0.21100    1.000
    C145     C        0.82000    0.98000    0.17000    1.000
    C146     C        0.82000    0.98000    0.09000    1.000
    H73      H        0.79080    0.96520    0.05370    1.000
    C147     C        0.86000    0.95000    0.34000    1.000
    H74      H        0.86070    0.90900    0.31310    1.000
    C148     C        0.86000    0.95000    0.42000    1.000
    H75      H        0.86030    0.91120    0.44970    1.000
    C149     C        0.78000    0.95000    0.20700    1.000
    H76      H        0.77980    0.94880    0.26140    1.000
    C150     C        0.69210    0.82050    0.17250    1.000
    C151     C        0.65060    0.78980    0.20340    1.000
    C152     C        0.63050    0.73920    0.16630    1.000
    H77      H        0.60220    0.71820    0.18750    1.000
    C153     C        0.65190    0.71940    0.09820    1.000
    C154     C        0.69340    0.75010    0.06720    1.000
    H78      H        0.70800    0.73660    0.02070    1.000
    C155     C        0.71350    0.80070    0.10440    1.000
    H79      H        0.74180    0.82170    0.08320    1.000
    C156     C        0.18760    0.80740    0.64450    1.000
    C157     C        0.61920    0.19040    0.87700    1.000
    O48      O        0.65070    0.65660    0.01510    1.000
    O49      O        0.60010    0.64180    0.09170    1.000
    O50      O        0.62500    0.87070    0.27600    1.000
    O51      O        0.59820    0.78510    0.32230    1.000
    N17      N        0.75130    0.90790    0.16790    1.000
    N18      N        0.71850    0.87050    0.20320    1.000
    H80      H        0.71290    0.87870    0.25200    1.000
    N19      N        0.63420    0.67260    0.06830    1.000
    N20      N        0.62520    0.81360    0.27390    1.000
    Zn10     Zn       0.36700    0.57000    0.69200    1.000
    O52      O        0.79000    0.09000    0.81000    1.000
    O53      O        0.81000    0.13000    0.70000    1.000
    O54      O        0.44000    0.39000    0.70000    1.000
    O55      O        0.47000    0.43000    0.81000    1.000
    O56      O        0.37000    0.45000    0.58000    1.000
    C158     C        0.78000    0.13000    0.76000    1.000
    C159     C        0.74000    0.17000    0.76000    1.000
    C160     C        0.74000    0.21000    0.70000    1.000
    H81      H        0.76020    0.21650    0.66020    1.000
    C161     C        0.69000    0.25000    0.70000    1.000
    C162     C        0.66000    0.25000    0.75000    1.000
    C163     C        0.66000    0.20000    0.81000    1.000
    C164     C        0.70000    0.17000    0.81000    1.000
    H82      H        0.70910    0.13670    0.85360    1.000
    C165     C        0.61000    0.29000    0.75000    1.000
    C166     C        0.60000    0.32000    0.82000    1.000
    H83      H        0.61980    0.31580    0.86580    1.000
    C167     C        0.55000    0.35000    0.82000    1.000
    H84      H        0.54510    0.37620    0.86570    1.000
    C168     C        0.52000    0.36000    0.75000    1.000
    C169     C        0.53000    0.33000    0.69000    1.000
    H85      H        0.50770    0.32790    0.64340    1.000
    C170     C        0.57000    0.29000    0.69000    1.000
    H86      H        0.58250    0.26740    0.64350    1.000
    C171     C        0.47000    0.39000    0.76000    1.000
    C172     C        0.40700    0.52000    0.10000    1.000
    H87      H        0.43750    0.53480    0.07580    1.000
    C173     C        0.40400    0.52000    0.18000    1.000
    H88      H        0.43250    0.53480    0.21100    1.000
    C174     C        0.32000    0.48000    0.17000    1.000
    C175     C        0.32000    0.48000    0.09000    1.000
    H89      H        0.29080    0.46520    0.05370    1.000
    C176     C        0.36000    0.45000    0.34000    1.000
    H90      H        0.36070    0.40900    0.31310    1.000
    C177     C        0.36000    0.45000    0.42000    1.000
    H91      H        0.36030    0.41120    0.44970    1.000
    C178     C        0.28000    0.45000    0.20700    1.000
    H92      H        0.27980    0.44880    0.26140    1.000
    C179     C        0.19210    0.32050    0.17250    1.000
    C180     C        0.15060    0.28980    0.20340    1.000
    C181     C        0.13050    0.23920    0.16630    1.000
    H93      H        0.10220    0.21820    0.18750    1.000
    C182     C        0.15190    0.21940    0.09820    1.000
    C183     C        0.19340    0.25010    0.06720    1.000
    H94      H        0.20800    0.23660    0.02070    1.000
    C184     C        0.21350    0.30070    0.10440    1.000
    H95      H        0.24180    0.32170    0.08320    1.000
    C185     C        0.68760    0.30740    0.64450    1.000
    C186     C        0.11920    0.69040    0.87700    1.000
    O57      O        0.15070    0.15660    0.01510    1.000
    O58      O        0.10010    0.14180    0.09170    1.000
    O59      O        0.12500    0.37070    0.27600    1.000
    O60      O        0.09820    0.28510    0.32230    1.000
    N21      N        0.25130    0.40790    0.16790    1.000
    N22      N        0.21850    0.37050    0.20320    1.000
    H96      H        0.21290    0.37870    0.25200    1.000
    N23      N        0.13420    0.17260    0.06830    1.000
    N24      N        0.12520    0.31360    0.27390    1.000
    Zn11     Zn       0.86700    0.93000    0.69200    1.000
    O61      O        0.29000    0.41000    0.81000    1.000
    O62      O        0.31000    0.37000    0.70000    1.000
    O63      O        0.94000    0.11000    0.70000    1.000
    O64      O        0.97000    0.07000    0.81000    1.000
    O65      O        0.87000    0.05000    0.58000    1.000
    C187     C        0.28000    0.37000    0.76000    1.000
    C188     C        0.24000    0.33000    0.76000    1.000
    C189     C        0.24000    0.29000    0.70000    1.000
    H97      H        0.26020    0.28350    0.66020    1.000
    C190     C        0.19000    0.25000    0.70000    1.000
    C191     C        0.16000    0.25000    0.75000    1.000
    C192     C        0.16000    0.30000    0.81000    1.000
    C193     C        0.20000    0.33000    0.81000    1.000
    H98      H        0.20910    0.36330    0.85360    1.000
    C194     C        0.11000    0.21000    0.75000    1.000
    C195     C        0.10000    0.18000    0.82000    1.000
    H99      H        0.11980    0.18420    0.86580    1.000
    C196     C        0.05000    0.15000    0.82000    1.000
    H100     H        0.04510    0.12380    0.86570    1.000
    C197     C        0.02000    0.14000    0.75000    1.000
    C198     C        0.03000    0.17000    0.69000    1.000
    H101     H        0.00770    0.17210    0.64340    1.000
    C199     C        0.07000    0.21000    0.69000    1.000
    H102     H        0.08250    0.23260    0.64350    1.000
    C200     C        0.97000    0.11000    0.76000    1.000
    C201     C        0.90700    0.98000    0.10000    1.000
    H103     H        0.93750    0.96520    0.07580    1.000
    C202     C        0.90400    0.98000    0.18000    1.000
    H104     H        0.93250    0.96520    0.21100    1.000
    C203     C        0.82000    0.02000    0.17000    1.000
    C204     C        0.82000    0.02000    0.09000    1.000
    H105     H        0.79080    0.03480    0.05370    1.000
    C205     C        0.86000    0.05000    0.34000    1.000
    H106     H        0.86070    0.09100    0.31310    1.000
    C206     C        0.86000    0.05000    0.42000    1.000
    H107     H        0.86030    0.08880    0.44970    1.000
    C207     C        0.78000    0.05000    0.20700    1.000
    H108     H        0.77980    0.05120    0.26140    1.000
    C208     C        0.69210    0.17950    0.17250    1.000
    C209     C        0.65060    0.21020    0.20340    1.000
    C210     C        0.63050    0.26080    0.16630    1.000
    H109     H        0.60220    0.28180    0.18750    1.000
    C211     C        0.65190    0.28060    0.09820    1.000
    C212     C        0.69340    0.24990    0.06720    1.000
    H110     H        0.70800    0.26340    0.02070    1.000
    C213     C        0.71350    0.19930    0.10440    1.000
    H111     H        0.74180    0.17830    0.08320    1.000
    C214     C        0.18760    0.19260    0.64450    1.000
    C215     C        0.61920    0.80960    0.87700    1.000
    O66      O        0.65070    0.34340    0.01510    1.000
    O67      O        0.60010    0.35820    0.09170    1.000
    O68      O        0.62500    0.12930    0.27600    1.000
    O69      O        0.59820    0.21490    0.32230    1.000
    N25      N        0.75130    0.09210    0.16790    1.000
    N26      N        0.71850    0.12950    0.20320    1.000
    H112     H        0.71290    0.12130    0.25200    1.000
    N27      N        0.63420    0.32740    0.06830    1.000
    N28      N        0.62520    0.18640    0.27390    1.000
    Zn12     Zn       0.36700    0.43000    0.69200    1.000
    O70      O        0.79000    0.91000    0.81000    1.000
    O71      O        0.81000    0.87000    0.70000    1.000
    O72      O        0.44000    0.61000    0.70000    1.000
    O73      O        0.47000    0.57000    0.81000    1.000
    O74      O        0.37000    0.55000    0.58000    1.000
    C216     C        0.78000    0.87000    0.76000    1.000
    C217     C        0.74000    0.83000    0.76000    1.000
    C218     C        0.74000    0.79000    0.70000    1.000
    H113     H        0.76020    0.78350    0.66020    1.000
    C219     C        0.69000    0.75000    0.70000    1.000
    C220     C        0.66000    0.75000    0.75000    1.000
    C221     C        0.66000    0.80000    0.81000    1.000
    C222     C        0.70000    0.83000    0.81000    1.000
    H114     H        0.70910    0.86330    0.85360    1.000
    C223     C        0.61000    0.71000    0.75000    1.000
    C224     C        0.60000    0.68000    0.82000    1.000
    H115     H        0.61980    0.68420    0.86580    1.000
    C225     C        0.55000    0.65000    0.82000    1.000
    H116     H        0.54510    0.62380    0.86570    1.000
    C226     C        0.52000    0.64000    0.75000    1.000
    C227     C        0.53000    0.67000    0.69000    1.000
    H117     H        0.50770    0.67210    0.64340    1.000
    C228     C        0.57000    0.71000    0.69000    1.000
    H118     H        0.58250    0.73260    0.64350    1.000
    C229     C        0.47000    0.61000    0.76000    1.000
    C230     C        0.40700    0.48000    0.10000    1.000
    H119     H        0.43750    0.46520    0.07580    1.000
    C231     C        0.40400    0.48000    0.18000    1.000
    H120     H        0.43250    0.46520    0.21100    1.000
    C232     C        0.32000    0.52000    0.17000    1.000
    C233     C        0.32000    0.52000    0.09000    1.000
    H121     H        0.29080    0.53480    0.05370    1.000
    C234     C        0.36000    0.55000    0.34000    1.000
    H122     H        0.36070    0.59100    0.31310    1.000
    C235     C        0.36000    0.55000    0.42000    1.000
    H123     H        0.36030    0.58880    0.44970    1.000
    C236     C        0.28000    0.55000    0.20700    1.000
    H124     H        0.27980    0.55120    0.26140    1.000
    C237     C        0.19210    0.67950    0.17250    1.000
    C238     C        0.15060    0.71020    0.20340    1.000
    C239     C        0.13050    0.76080    0.16630    1.000
    H125     H        0.10220    0.78180    0.18750    1.000
    C240     C        0.15190    0.78060    0.09820    1.000
    C241     C        0.19340    0.74990    0.06720    1.000
    H126     H        0.20800    0.76340    0.02070    1.000
    C242     C        0.21350    0.69930    0.10440    1.000
    H127     H        0.24180    0.67830    0.08320    1.000
    C243     C        0.68760    0.69260    0.64450    1.000
    C244     C        0.11920    0.30960    0.87700    1.000
    O75      O        0.15070    0.84340    0.01510    1.000
    O76      O        0.10010    0.85820    0.09170    1.000
    O77      O        0.12500    0.62930    0.27600    1.000
    O78      O        0.09820    0.71490    0.32230    1.000
    N29      N        0.25130    0.59210    0.16790    1.000
    N30      N        0.21850    0.62950    0.20320    1.000
    H128     H        0.21290    0.62130    0.25200    1.000
    N31      N        0.13420    0.82740    0.06830    1.000
    N32      N        0.12520    0.68640    0.27390    1.000
    Zn13     Zn       0.92400    0.00000    0.83000    1.000
    Zn14     Zn       0.79800    0.00000    0.81400    1.000
    O79      O        0.86000    0.00000    0.76000    1.000
    O80      O        0.91000    0.00000    0.94000    1.000
    O81      O        0.83000    0.00000    0.93000    1.000
    C245     C        0.87000    0.00000    0.97000    1.000
    C246     C        0.86000    0.00000    0.05000    1.000
    C247     C        0.85900    0.00000    0.21000    1.000
    C248     C        0.85800    0.00000    0.30000    1.000
    C249     C        0.86000    0.00000    0.46000    1.000
    C250     C        0.86000    0.00000    0.55000    1.000
    Zn15     Zn       0.42400    0.50000    0.83000    1.000
    Zn16     Zn       0.29800    0.50000    0.81400    1.000
    O82      O        0.36000    0.50000    0.76000    1.000
    O83      O        0.41000    0.50000    0.94000    1.000
    O84      O        0.33000    0.50000    0.93000    1.000
    C251     C        0.37000    0.50000    0.97000    1.000
    C252     C        0.36000    0.50000    0.05000    1.000
    C253     C        0.35900    0.50000    0.21000    1.000
    C254     C        0.35800    0.50000    0.30000    1.000
    C255     C        0.36000    0.50000    0.46000    1.000
    C256     C        0.36000    0.50000    0.55000    1.000
