# CIF file generated by openbabel 3.1.0, see https://openbabel.org
data_I
_chemical_name_common 'image0'
_cell_length_a 30.379
_cell_length_b 8.9963
_cell_length_c 20.1175
_cell_angle_alpha 90
_cell_angle_beta 107.423
_cell_angle_gamma 90
_space_group_name_H-M_alt 'P 1'
_space_group_name_Hall 'P 1'
loop_
    _symmetry_equiv_pos_as_xyz
    x,y,z
loop_
    _atom_site_label
    _atom_site_type_symbol
    _atom_site_fract_x
    _atom_site_fract_y
    _atom_site_fract_z
    _atom_site_occupancy
    Tb1      Tb       0.24979    0.97329    0.07254    1.000
    O1       O        0.18200    0.87680    0.99820    1.000
    O2       O        0.80620    0.96920    0.86540    1.000
    O3       O        0.31650    0.02490    0.18130    1.000
    O4       O        0.30020    0.18400    0.09610    1.000
    O5       O        0.80430    0.81720    0.95070    1.000
    O6       O        0.19590    0.65730    0.95820    1.000
    C1       C        0.37340    0.20980    0.18040    1.000
    C2       C        0.32730    0.13700    0.15260    1.000
    C3       C        0.11910    0.72400    0.94560    1.000
    C4       C        0.40520    0.15950    0.23970    1.000
    H1       H        0.39790    0.08030    0.26420    1.000
    C5       C        0.82410    0.86820    0.90750    1.000
    C6       C        0.16950    0.75470    0.96890    1.000
    C7       C        0.38480    0.32880    0.14350    1.000
    H2       H        0.36330    0.36230    0.10300    1.000
    C8       C        0.08780    0.79550    0.97010    1.000
    H3       H        0.09780    0.87220    0.00210    1.000
    C9       C        0.42730    0.39670    0.16620    1.000
    H4       H        0.43480    0.47500    0.14140    1.000
    C10      C        0.45890    0.34450    0.22780    1.000
    C11      C        0.44860    0.22650    0.26360    1.000
    H5       H        0.47030    0.19130    0.30360    1.000
    C12      C        0.04120    0.75760    0.94880    1.000
    H6       H        0.02120    0.78510    0.97380    1.000
    C13      C        0.10180    0.64200    0.88000    1.000
    H7       H        0.12200    0.61120    0.85600    1.000
    O7       O        0.98040    0.62500    0.85650    1.000
    C14      C        0.02570    0.67000    0.88300    1.000
    C15      C        0.92970    0.82900    0.84380    1.000
    H8       H        0.94440    0.87560    0.81510    1.000
    C16      C        0.94680    0.69580    0.87640    1.000
    C17      C        0.92480    0.62610    0.91930    1.000
    H9       H        0.93620    0.53700    0.94110    1.000
    C18      C        0.88570    0.68970    0.92980    1.000
    H10      H        0.87100    0.64310    0.95850    1.000
    C19      C        0.86860    0.82300    0.89720    1.000
    C20      C        0.89060    0.89260    0.85430    1.000
    H11      H        0.87910    0.98180    0.83250    1.000
    C21      C        0.05630    0.61100    0.85460    1.000
    H12      H        0.04600    0.54810    0.81650    1.000
    H13      H        0.01890    0.82770    0.94970    1.000
    C22      C        0.10560    0.57200    0.92520    1.000
    H14      H        0.12800    0.50460    0.92150    1.000
    C23      C        0.06030    0.52400    0.91090    1.000
    H15      H        0.05130    0.43160    0.89100    1.000
    C24      C        0.02890    0.61700    0.92680    1.000
    O8       O        0.98560    0.55600    0.91270    1.000
    C25      C        0.95020    0.63970    0.91770    1.000
    C26      C        0.92710    0.60160    0.96540    1.000
    H16      H        0.93840    0.52590    0.99750    1.000
    C27      C        0.88710    0.67660    0.96520    1.000
    H17      H        0.87160    0.65120    0.99710    1.000
    C28      C        0.87010    0.78980    0.91730    1.000
    C29      C        0.89320    0.82790    0.86970    1.000
    H18      H        0.88180    0.90360    0.83760    1.000
    C30      C        0.93320    0.75300    0.86990    1.000
    H19      H        0.94860    0.77830    0.83790    1.000
    Tb2      Tb       0.74979    0.47329    0.07254    1.000
    O9       O        0.68200    0.37680    0.99820    1.000
    O10      O        0.30620    0.46920    0.86540    1.000
    O11      O        0.81650    0.52490    0.18130    1.000
    O12      O        0.80020    0.68400    0.09610    1.000
    O13      O        0.30430    0.31720    0.95070    1.000
    O14      O        0.69590    0.15730    0.95820    1.000
    C31      C        0.87340    0.70980    0.18040    1.000
    C32      C        0.82730    0.63700    0.15260    1.000
    C33      C        0.61910    0.22400    0.94560    1.000
    C34      C        0.90520    0.65950    0.23970    1.000
    H20      H        0.89790    0.58030    0.26420    1.000
    C35      C        0.32410    0.36820    0.90750    1.000
    C36      C        0.66950    0.25470    0.96890    1.000
    C37      C        0.88480    0.82880    0.14350    1.000
    H21      H        0.86330    0.86230    0.10300    1.000
    C38      C        0.58780    0.29550    0.97010    1.000
    H22      H        0.59780    0.37220    0.00210    1.000
    C39      C        0.92730    0.89670    0.16620    1.000
    H23      H        0.93480    0.97500    0.14140    1.000
    C40      C        0.95890    0.84450    0.22780    1.000
    C41      C        0.94860    0.72650    0.26360    1.000
    H24      H        0.97030    0.69130    0.30360    1.000
    C42      C        0.54120    0.25760    0.94880    1.000
    H25      H        0.52120    0.28510    0.97380    1.000
    C43      C        0.60180    0.14200    0.88000    1.000
    H26      H        0.62200    0.11120    0.85600    1.000
    O15      O        0.48040    0.12500    0.85650    1.000
    C44      C        0.52570    0.17000    0.88300    1.000
    C45      C        0.42970    0.32900    0.84380    1.000
    H27      H        0.44440    0.37560    0.81510    1.000
    C46      C        0.44680    0.19580    0.87640    1.000
    C47      C        0.42480    0.12610    0.91930    1.000
    H28      H        0.43620    0.03700    0.94110    1.000
    C48      C        0.38570    0.18970    0.92980    1.000
    H29      H        0.37100    0.14310    0.95850    1.000
    C49      C        0.36860    0.32300    0.89720    1.000
    C50      C        0.39060    0.39260    0.85430    1.000
    H30      H        0.37910    0.48180    0.83250    1.000
    C51      C        0.55630    0.11100    0.85460    1.000
    H31      H        0.54600    0.04810    0.81650    1.000
    H32      H        0.51890    0.32770    0.94970    1.000
    C52      C        0.60560    0.07200    0.92520    1.000
    H33      H        0.62800    0.00460    0.92150    1.000
    C53      C        0.56030    0.02400    0.91090    1.000
    H34      H        0.55130    0.93160    0.89100    1.000
    C54      C        0.52890    0.11700    0.92680    1.000
    O16      O        0.48560    0.05600    0.91270    1.000
    C55      C        0.45020    0.13970    0.91770    1.000
    C56      C        0.42710    0.10160    0.96540    1.000
    H35      H        0.43840    0.02590    0.99750    1.000
    C57      C        0.38710    0.17660    0.96520    1.000
    H36      H        0.37160    0.15120    0.99710    1.000
    C58      C        0.37010    0.28980    0.91730    1.000
    C59      C        0.39320    0.32790    0.86970    1.000
    H37      H        0.38180    0.40360    0.83760    1.000
    C60      C        0.43320    0.25300    0.86990    1.000
    H38      H        0.44860    0.27830    0.83790    1.000
    Tb3      Tb       0.75021    0.97329    0.42746    1.000
    O17      O        0.81800    0.87680    0.50180    1.000
    O18      O        0.19380    0.96920    0.63460    1.000
    O19      O        0.68350    0.02490    0.31870    1.000
    O20      O        0.69980    0.18400    0.40390    1.000
    O21      O        0.19570    0.81720    0.54930    1.000
    O22      O        0.80410    0.65730    0.54180    1.000
    C61      C        0.62660    0.20980    0.31960    1.000
    C62      C        0.67270    0.13700    0.34740    1.000
    C63      C        0.88090    0.72400    0.55440    1.000
    C64      C        0.59480    0.15950    0.26030    1.000
    H39      H        0.60210    0.08030    0.23580    1.000
    C65      C        0.17590    0.86820    0.59250    1.000
    C66      C        0.83050    0.75470    0.53110    1.000
    C67      C        0.61520    0.32880    0.35650    1.000
    H40      H        0.63670    0.36230    0.39700    1.000
    C68      C        0.91220    0.79550    0.52990    1.000
    H41      H        0.90220    0.87220    0.49790    1.000
    C69      C        0.57270    0.39670    0.33380    1.000
    H42      H        0.56520    0.47500    0.35860    1.000
    C70      C        0.54110    0.34450    0.27220    1.000
    C71      C        0.55140    0.22650    0.23640    1.000
    H43      H        0.52970    0.19130    0.19640    1.000
    C72      C        0.95880    0.75760    0.55120    1.000
    H44      H        0.97880    0.78510    0.52620    1.000
    C73      C        0.89820    0.64200    0.62000    1.000
    H45      H        0.87800    0.61120    0.64400    1.000
    O23      O        0.01960    0.62500    0.64350    1.000
    C74      C        0.97430    0.67000    0.61700    1.000
    C75      C        0.07030    0.82900    0.65620    1.000
    H46      H        0.05560    0.87560    0.68490    1.000
    C76      C        0.05320    0.69580    0.62360    1.000
    C77      C        0.07520    0.62610    0.58070    1.000
    H47      H        0.06380    0.53700    0.55890    1.000
    C78      C        0.11430    0.68970    0.57020    1.000
    H48      H        0.12900    0.64310    0.54150    1.000
    C79      C        0.13140    0.82300    0.60280    1.000
    C80      C        0.10940    0.89260    0.64570    1.000
    H49      H        0.12090    0.98180    0.66750    1.000
    C81      C        0.94370    0.61100    0.64540    1.000
    H50      H        0.95400    0.54810    0.68350    1.000
    H51      H        0.98110    0.82770    0.55030    1.000
    C82      C        0.89440    0.57200    0.57480    1.000
    H52      H        0.87200    0.50460    0.57850    1.000
    C83      C        0.93970    0.52400    0.58910    1.000
    H53      H        0.94870    0.43160    0.60900    1.000
    C84      C        0.97110    0.61700    0.57320    1.000
    O24      O        0.01440    0.55600    0.58730    1.000
    C85      C        0.04980    0.63970    0.58230    1.000
    C86      C        0.07290    0.60160    0.53460    1.000
    H54      H        0.06160    0.52590    0.50250    1.000
    C87      C        0.11290    0.67660    0.53480    1.000
    H55      H        0.12840    0.65120    0.50290    1.000
    C88      C        0.12990    0.78980    0.58270    1.000
    C89      C        0.10680    0.82790    0.63030    1.000
    H56      H        0.11820    0.90360    0.66240    1.000
    C90      C        0.06680    0.75300    0.63010    1.000
    H57      H        0.05140    0.77830    0.66210    1.000
    Tb4      Tb       0.25021    0.47329    0.42746    1.000
    O25      O        0.31800    0.37680    0.50180    1.000
    O26      O        0.69380    0.46920    0.63460    1.000
    O27      O        0.18350    0.52490    0.31870    1.000
    O28      O        0.19980    0.68400    0.40390    1.000
    O29      O        0.69570    0.31720    0.54930    1.000
    O30      O        0.30410    0.15730    0.54180    1.000
    C91      C        0.12660    0.70980    0.31960    1.000
    C92      C        0.17270    0.63700    0.34740    1.000
    C93      C        0.38090    0.22400    0.55440    1.000
    C94      C        0.09480    0.65950    0.26030    1.000
    H58      H        0.10210    0.58030    0.23580    1.000
    C95      C        0.67590    0.36820    0.59250    1.000
    C96      C        0.33050    0.25470    0.53110    1.000
    C97      C        0.11520    0.82880    0.35650    1.000
    H59      H        0.13670    0.86230    0.39700    1.000
    C98      C        0.41220    0.29550    0.52990    1.000
    H60      H        0.40220    0.37220    0.49790    1.000
    C99      C        0.07270    0.89670    0.33380    1.000
    H61      H        0.06520    0.97500    0.35860    1.000
    C100     C        0.04110    0.84450    0.27220    1.000
    C101     C        0.05140    0.72650    0.23640    1.000
    H62      H        0.02970    0.69130    0.19640    1.000
    C102     C        0.45880    0.25760    0.55120    1.000
    H63      H        0.47880    0.28510    0.52620    1.000
    C103     C        0.39820    0.14200    0.62000    1.000
    H64      H        0.37800    0.11120    0.64400    1.000
    O31      O        0.51960    0.12500    0.64350    1.000
    C104     C        0.47430    0.17000    0.61700    1.000
    C105     C        0.57030    0.32900    0.65620    1.000
    H65      H        0.55560    0.37560    0.68490    1.000
    C106     C        0.55320    0.19580    0.62360    1.000
    C107     C        0.57520    0.12610    0.58070    1.000
    H66      H        0.56380    0.03700    0.55890    1.000
    C108     C        0.61430    0.18970    0.57020    1.000
    H67      H        0.62900    0.14310    0.54150    1.000
    C109     C        0.63140    0.32300    0.60280    1.000
    C110     C        0.60940    0.39260    0.64570    1.000
    H68      H        0.62090    0.48180    0.66750    1.000
    C111     C        0.44370    0.11100    0.64540    1.000
    H69      H        0.45400    0.04810    0.68350    1.000
    H70      H        0.48110    0.32770    0.55030    1.000
    C112     C        0.39440    0.07200    0.57480    1.000
    H71      H        0.37200    0.00460    0.57850    1.000
    C113     C        0.43970    0.02400    0.58910    1.000
    H72      H        0.44870    0.93160    0.60900    1.000
    C114     C        0.47110    0.11700    0.57320    1.000
    O32      O        0.51440    0.05600    0.58730    1.000
    C115     C        0.54980    0.13970    0.58230    1.000
    C116     C        0.57290    0.10160    0.53460    1.000
    H73      H        0.56160    0.02590    0.50250    1.000
    C117     C        0.61290    0.17660    0.53480    1.000
    H74      H        0.62840    0.15120    0.50290    1.000
    C118     C        0.62990    0.28980    0.58270    1.000
    C119     C        0.60680    0.32790    0.63030    1.000
    H75      H        0.61820    0.40360    0.66240    1.000
    C120     C        0.56680    0.25300    0.63010    1.000
    H76      H        0.55140    0.27830    0.66210    1.000
    Tb5      Tb       0.75021    0.02671    0.92746    1.000
    O33      O        0.81800    0.12320    0.00180    1.000
    O34      O        0.19380    0.03080    0.13460    1.000
    O35      O        0.68350    0.97510    0.81870    1.000
    O36      O        0.69980    0.81600    0.90390    1.000
    O37      O        0.19570    0.18280    0.04930    1.000
    O38      O        0.80410    0.34270    0.04180    1.000
    C121     C        0.62660    0.79020    0.81960    1.000
    C122     C        0.67270    0.86300    0.84740    1.000
    C123     C        0.88090    0.27600    0.05440    1.000
    C124     C        0.59480    0.84050    0.76030    1.000
    H77      H        0.60210    0.91970    0.73580    1.000
    C125     C        0.17590    0.13180    0.09250    1.000
    C126     C        0.83050    0.24530    0.03110    1.000
    C127     C        0.61520    0.67120    0.85650    1.000
    H78      H        0.63670    0.63770    0.89700    1.000
    C128     C        0.91220    0.20450    0.02990    1.000
    H79      H        0.90220    0.12780    0.99790    1.000
    C129     C        0.57270    0.60330    0.83380    1.000
    H80      H        0.56520    0.52500    0.85860    1.000
    C130     C        0.54110    0.65550    0.77220    1.000
    C131     C        0.55140    0.77350    0.73640    1.000
    H81      H        0.52970    0.80870    0.69640    1.000
    C132     C        0.95880    0.24240    0.05120    1.000
    H82      H        0.97880    0.21490    0.02620    1.000
    C133     C        0.89820    0.35800    0.12000    1.000
    H83      H        0.87800    0.38880    0.14400    1.000
    O39      O        0.01960    0.37500    0.14350    1.000
    C134     C        0.97430    0.33000    0.11700    1.000
    C135     C        0.07030    0.17100    0.15620    1.000
    H84      H        0.05560    0.12440    0.18490    1.000
    C136     C        0.05320    0.30420    0.12360    1.000
    C137     C        0.07520    0.37390    0.08070    1.000
    H85      H        0.06380    0.46300    0.05890    1.000
    C138     C        0.11430    0.31030    0.07020    1.000
    H86      H        0.12900    0.35690    0.04150    1.000
    C139     C        0.13140    0.17700    0.10280    1.000
    C140     C        0.10940    0.10740    0.14570    1.000
    H87      H        0.12090    0.01820    0.16750    1.000
    C141     C        0.94370    0.38900    0.14540    1.000
    H88      H        0.95400    0.45190    0.18350    1.000
    H89      H        0.98110    0.17230    0.05030    1.000
    C142     C        0.89440    0.42800    0.07480    1.000
    H90      H        0.87200    0.49540    0.07850    1.000
    C143     C        0.93970    0.47600    0.08910    1.000
    H91      H        0.94870    0.56840    0.10900    1.000
    C144     C        0.97110    0.38300    0.07320    1.000
    O40      O        0.01440    0.44400    0.08730    1.000
    C145     C        0.04980    0.36030    0.08230    1.000
    C146     C        0.07290    0.39840    0.03460    1.000
    H92      H        0.06160    0.47410    0.00250    1.000
    C147     C        0.11290    0.32340    0.03480    1.000
    H93      H        0.12840    0.34880    0.00290    1.000
    C148     C        0.12990    0.21020    0.08270    1.000
    C149     C        0.10680    0.17210    0.13030    1.000
    H94      H        0.11820    0.09640    0.16240    1.000
    C150     C        0.06680    0.24700    0.13010    1.000
    H95      H        0.05140    0.22170    0.16210    1.000
    Tb6      Tb       0.25021    0.52671    0.92746    1.000
    O41      O        0.31800    0.62320    0.00180    1.000
    O42      O        0.69380    0.53080    0.13460    1.000
    O43      O        0.18350    0.47510    0.81870    1.000
    O44      O        0.19980    0.31600    0.90390    1.000
    O45      O        0.69570    0.68280    0.04930    1.000
    O46      O        0.30410    0.84270    0.04180    1.000
    C151     C        0.12660    0.29020    0.81960    1.000
    C152     C        0.17270    0.36300    0.84740    1.000
    C153     C        0.38090    0.77600    0.05440    1.000
    C154     C        0.09480    0.34050    0.76030    1.000
    H96      H        0.10210    0.41970    0.73580    1.000
    C155     C        0.67590    0.63180    0.09250    1.000
    C156     C        0.33050    0.74530    0.03110    1.000
    C157     C        0.11520    0.17120    0.85650    1.000
    H97      H        0.13670    0.13770    0.89700    1.000
    C158     C        0.41220    0.70450    0.02990    1.000
    H98      H        0.40220    0.62780    0.99790    1.000
    C159     C        0.07270    0.10330    0.83380    1.000
    H99      H        0.06520    0.02500    0.85860    1.000
    C160     C        0.04110    0.15550    0.77220    1.000
    C161     C        0.05140    0.27350    0.73640    1.000
    H100     H        0.02970    0.30870    0.69640    1.000
    C162     C        0.45880    0.74240    0.05120    1.000
    H101     H        0.47880    0.71490    0.02620    1.000
    C163     C        0.39820    0.85800    0.12000    1.000
    H102     H        0.37800    0.88880    0.14400    1.000
    O47      O        0.51960    0.87500    0.14350    1.000
    C164     C        0.47430    0.83000    0.11700    1.000
    C165     C        0.57030    0.67100    0.15620    1.000
    H103     H        0.55560    0.62440    0.18490    1.000
    C166     C        0.55320    0.80420    0.12360    1.000
    C167     C        0.57520    0.87390    0.08070    1.000
    H104     H        0.56380    0.96300    0.05890    1.000
    C168     C        0.61430    0.81030    0.07020    1.000
    H105     H        0.62900    0.85690    0.04150    1.000
    C169     C        0.63140    0.67700    0.10280    1.000
    C170     C        0.60940    0.60740    0.14570    1.000
    H106     H        0.62090    0.51820    0.16750    1.000
    C171     C        0.44370    0.88900    0.14540    1.000
    H107     H        0.45400    0.95190    0.18350    1.000
    H108     H        0.48110    0.67230    0.05030    1.000
    C172     C        0.39440    0.92800    0.07480    1.000
    H109     H        0.37200    0.99540    0.07850    1.000
    C173     C        0.43970    0.97600    0.08910    1.000
    H110     H        0.44870    0.06840    0.10900    1.000
    C174     C        0.47110    0.88300    0.07320    1.000
    O48      O        0.51440    0.94400    0.08730    1.000
    C175     C        0.54980    0.86030    0.08230    1.000
    C176     C        0.57290    0.89840    0.03460    1.000
    H111     H        0.56160    0.97410    0.00250    1.000
    C177     C        0.61290    0.82340    0.03480    1.000
    H112     H        0.62840    0.84880    0.00290    1.000
    C178     C        0.62990    0.71020    0.08270    1.000
    C179     C        0.60680    0.67210    0.13030    1.000
    H113     H        0.61820    0.59640    0.16240    1.000
    C180     C        0.56680    0.74700    0.13010    1.000
    H114     H        0.55140    0.72170    0.16210    1.000
    Tb7      Tb       0.24979    0.02671    0.57254    1.000
    O49      O        0.18200    0.12320    0.49820    1.000
    O50      O        0.80620    0.03080    0.36540    1.000
    O51      O        0.31650    0.97510    0.68130    1.000
    O52      O        0.30020    0.81600    0.59610    1.000
    O53      O        0.80430    0.18280    0.45070    1.000
    O54      O        0.19590    0.34270    0.45820    1.000
    C181     C        0.37340    0.79020    0.68040    1.000
    C182     C        0.32730    0.86300    0.65260    1.000
    C183     C        0.11910    0.27600    0.44560    1.000
    C184     C        0.40520    0.84050    0.73970    1.000
    H115     H        0.39790    0.91970    0.76420    1.000
    C185     C        0.82410    0.13180    0.40750    1.000
    C186     C        0.16950    0.24530    0.46890    1.000
    C187     C        0.38480    0.67120    0.64350    1.000
    H116     H        0.36330    0.63770    0.60300    1.000
    C188     C        0.08780    0.20450    0.47010    1.000
    H117     H        0.09780    0.12780    0.50210    1.000
    C189     C        0.42730    0.60330    0.66620    1.000
    H118     H        0.43480    0.52500    0.64140    1.000
    C190     C        0.45890    0.65550    0.72780    1.000
    C191     C        0.44860    0.77350    0.76360    1.000
    H119     H        0.47030    0.80870    0.80360    1.000
    C192     C        0.04120    0.24240    0.44880    1.000
    H120     H        0.02120    0.21490    0.47380    1.000
    C193     C        0.10180    0.35800    0.38000    1.000
    H121     H        0.12200    0.38880    0.35600    1.000
    O55      O        0.98040    0.37500    0.35650    1.000
    C194     C        0.02570    0.33000    0.38300    1.000
    C195     C        0.92970    0.17100    0.34380    1.000
    H122     H        0.94440    0.12440    0.31510    1.000
    C196     C        0.94680    0.30420    0.37640    1.000
    C197     C        0.92480    0.37390    0.41930    1.000
    H123     H        0.93620    0.46300    0.44110    1.000
    C198     C        0.88570    0.31030    0.42980    1.000
    H124     H        0.87100    0.35690    0.45850    1.000
    C199     C        0.86860    0.17700    0.39720    1.000
    C200     C        0.89060    0.10740    0.35430    1.000
    H125     H        0.87910    0.01820    0.33250    1.000
    C201     C        0.05630    0.38900    0.35460    1.000
    H126     H        0.04600    0.45190    0.31650    1.000
    H127     H        0.01890    0.17230    0.44970    1.000
    C202     C        0.10560    0.42800    0.42520    1.000
    H128     H        0.12800    0.49540    0.42150    1.000
    C203     C        0.06030    0.47600    0.41090    1.000
    H129     H        0.05130    0.56840    0.39100    1.000
    C204     C        0.02890    0.38300    0.42680    1.000
    O56      O        0.98560    0.44400    0.41270    1.000
    C205     C        0.95020    0.36030    0.41770    1.000
    C206     C        0.92710    0.39840    0.46540    1.000
    H130     H        0.93840    0.47410    0.49750    1.000
    C207     C        0.88710    0.32340    0.46520    1.000
    H131     H        0.87160    0.34880    0.49710    1.000
    C208     C        0.87010    0.21020    0.41730    1.000
    C209     C        0.89320    0.17210    0.36970    1.000
    H132     H        0.88180    0.09640    0.33760    1.000
    C210     C        0.93320    0.24700    0.36990    1.000
    H133     H        0.94860    0.22170    0.33790    1.000
    Tb8      Tb       0.74979    0.52671    0.57254    1.000
    O57      O        0.68200    0.62320    0.49820    1.000
    O58      O        0.30620    0.53080    0.36540    1.000
    O59      O        0.81650    0.47510    0.68130    1.000
    O60      O        0.80020    0.31600    0.59610    1.000
    O61      O        0.30430    0.68280    0.45070    1.000
    O62      O        0.69590    0.84270    0.45820    1.000
    C211     C        0.87340    0.29020    0.68040    1.000
    C212     C        0.82730    0.36300    0.65260    1.000
    C213     C        0.61910    0.77600    0.44560    1.000
    C214     C        0.90520    0.34050    0.73970    1.000
    H134     H        0.89790    0.41970    0.76420    1.000
    C215     C        0.32410    0.63180    0.40750    1.000
    C216     C        0.66950    0.74530    0.46890    1.000
    C217     C        0.88480    0.17120    0.64350    1.000
    H135     H        0.86330    0.13770    0.60300    1.000
    C218     C        0.58780    0.70450    0.47010    1.000
    H136     H        0.59780    0.62780    0.50210    1.000
    C219     C        0.92730    0.10330    0.66620    1.000
    H137     H        0.93480    0.02500    0.64140    1.000
    C220     C        0.95890    0.15550    0.72780    1.000
    C221     C        0.94860    0.27350    0.76360    1.000
    H138     H        0.97030    0.30870    0.80360    1.000
    C222     C        0.54120    0.74240    0.44880    1.000
    H139     H        0.52120    0.71490    0.47380    1.000
    C223     C        0.60180    0.85800    0.38000    1.000
    H140     H        0.62200    0.88880    0.35600    1.000
    O63      O        0.48040    0.87500    0.35650    1.000
    C224     C        0.52570    0.83000    0.38300    1.000
    C225     C        0.42970    0.67100    0.34380    1.000
    H141     H        0.44440    0.62440    0.31510    1.000
    C226     C        0.44680    0.80420    0.37640    1.000
    C227     C        0.42480    0.87390    0.41930    1.000
    H142     H        0.43620    0.96300    0.44110    1.000
    C228     C        0.38570    0.81030    0.42980    1.000
    H143     H        0.37100    0.85690    0.45850    1.000
    C229     C        0.36860    0.67700    0.39720    1.000
    C230     C        0.39060    0.60740    0.35430    1.000
    H144     H        0.37910    0.51820    0.33250    1.000
    C231     C        0.55630    0.88900    0.35460    1.000
    H145     H        0.54600    0.95190    0.31650    1.000
    H146     H        0.51890    0.67230    0.44970    1.000
    C232     C        0.60560    0.92800    0.42520    1.000
    H147     H        0.62800    0.99540    0.42150    1.000
    C233     C        0.56030    0.97600    0.41090    1.000
    H148     H        0.55130    0.06840    0.39100    1.000
    C234     C        0.52890    0.88300    0.42680    1.000
    O64      O        0.48560    0.94400    0.41270    1.000
    C235     C        0.45020    0.86030    0.41770    1.000
    C236     C        0.42710    0.89840    0.46540    1.000
    H149     H        0.43840    0.97410    0.49750    1.000
    C237     C        0.38710    0.82340    0.46520    1.000
    H150     H        0.37160    0.84880    0.49710    1.000
    C238     C        0.37010    0.71020    0.41730    1.000
    C239     C        0.39320    0.67210    0.36970    1.000
    H151     H        0.38180    0.59640    0.33760    1.000
    C240     C        0.43320    0.74700    0.36990    1.000
    H152     H        0.44860    0.72170    0.33790    1.000
    O65      O        0.50000    0.42140    0.25000    1.000
    O66      O        0.00000    0.92140    0.25000    1.000
    O67      O        0.50000    0.57860    0.75000    1.000
    O68      O        0.00000    0.07860    0.75000    1.000
