# CIF file generated by openbabel 3.1.0, see https://openbabel.org
data_I
_chemical_name_common 'image0'
_cell_length_a 15.029
_cell_length_b 19.2206
_cell_length_c 21.3862
_cell_angle_alpha 90
_cell_angle_beta 118.363
_cell_angle_gamma 90
_space_group_name_H-M_alt 'P 1'
_space_group_name_Hall 'P 1'
loop_
    _symmetry_equiv_pos_as_xyz
    x,y,z
loop_
    _atom_site_label
    _atom_site_type_symbol
    _atom_site_fract_x
    _atom_site_fract_y
    _atom_site_fract_z
    _atom_site_occupancy
    Zn1      Zn       0.78771    0.93170    0.86787    1.000
    Zn2      Zn       0.95700    0.87430    0.42457    1.000
    Zn3      Zn       0.75019    0.78062    0.39652    1.000
    Co1      Co       0.24228    0.82004    0.80418    1.000
    O1       O        0.16030    0.01979    0.78756    1.000
    O2       O        0.64620    0.00491    0.78768    1.000
    O3       O        0.64427    0.90253    0.83128    1.000
    O4       O        0.14170    0.99483    0.06418    1.000
    O5       O        0.84360    0.92589    0.80180    1.000
    O6       O        0.84510    0.83788    0.91950    1.000
    O7       O        0.24900    0.01165    0.02188    1.000
    O8       O        0.17880    0.07945    0.63137    1.000
    O9       O        0.31830    0.12969    0.64344    1.000
    O10      O        0.73060    0.85960    0.71756    1.000
    O11      O        0.80800    0.81307    0.50253    1.000
    O12      O        0.94330    0.87257    0.51531    1.000
    O13      O        0.25640    0.70655    0.96574    1.000
    O14      O        0.89042    0.73448    0.90198    1.000
    O15      O        0.22640    0.80879    0.61265    1.000
    N1       N        0.34270    0.88688    0.86414    1.000
    N2       N        0.15560    0.90073    0.77668    1.000
    N3       N        0.33460    0.74144    0.83746    1.000
    N4       N        0.21430    0.79098    0.88059    1.000
    N5       N        0.14290    0.75760    0.73440    1.000
    N6       N        0.27210    0.83920    0.72723    1.000
    C1       C        0.44080    0.87430    0.90793    1.000
    H1       H        0.46220    0.82860    0.92040    1.000
    C2       C        0.51070    0.92720    0.93500    1.000
    H2       H        0.57850    0.91730    0.96510    1.000
    C3       C        0.47910    0.99460    0.91710    1.000
    H3       H        0.52570    0.03080    0.93310    1.000
    C4       C        0.37750    0.00850    0.87510    1.000
    H4       H        0.35440    0.05400    0.86440    1.000
    C5       C        0.31100    0.95312    0.84932    1.000
    C6       C        0.20000    0.96133    0.80107    1.000
    C7       C        0.05000    0.89727    0.72957    1.000
    C8       C        0.01440    0.88332    0.65825    1.000
    H5       H        0.05930    0.88400    0.63980    1.000
    C9       C        0.91370    0.86834    0.61375    1.000
    C10      C        0.84610    0.86919    0.64113    1.000
    H6       H        0.77890    0.85660    0.61260    1.000
    C11      C        0.87970    0.88906    0.71164    1.000
    C12      C        0.98130    0.90328    0.75516    1.000
    H7       H        0.00350    0.91700    0.80200    1.000
    C13      C        0.88450    0.84973    0.53709    1.000
    C14      C        0.81040    0.89140    0.74463    1.000
    C15      C        0.39830    0.72014    0.81350    1.000
    H8       H        0.39780    0.74340    0.77520    1.000
    C16      C        0.46340    0.66590    0.84300    1.000
    H9       H        0.50730    0.65290    0.82580    1.000
    C17      C        0.46270    0.63080    0.89880    1.000
    H10      H        0.50710    0.59410    0.92050    1.000
    C18      C        0.39540    0.65080    0.92230    1.000
    H11      H        0.39240    0.62670    0.95890    1.000
    C19      C        0.33330    0.70656    0.89120    1.000
    C20      C        0.26260    0.73499    0.91531    1.000
    C21      C        0.15340    0.82519    0.90670    1.000
    C22      C        0.18840    0.88549    0.94624    1.000
    H12      H        0.24890    0.90500    0.95290    1.000
    C23      C        0.13450    0.91732    0.97629    1.000
    C24      C        0.04320    0.88925    0.96494    1.000
    H13      H        0.00640    0.91060    0.98430    1.000
    C25      C        0.00660    0.82906    0.92448    1.000
    C26      C        0.06150    0.79709    0.89582    1.000
    H14      H        0.03710    0.75660    0.86920    1.000
    C27      C        0.90870    0.79929    0.91460    1.000
    C28      C        0.07210    0.72000    0.73990    1.000
    H15      H        0.06830    0.72170    0.78210    1.000
    C29      C        0.00470    0.67900    0.68540    1.000
    H16      H        0.95540    0.65410    0.69040    1.000
    C30      C        0.01100    0.67490    0.62320    1.000
    H17      H        0.96590    0.64750    0.58570    1.000
    C31      C        0.08490    0.71210    0.61770    1.000
    H18      H        0.09190    0.70930    0.57680    1.000
    C32      C        0.14800    0.75328    0.67329    1.000
    C33      C        0.22070    0.80313    0.66856    1.000
    C34      C        0.32860    0.89770    0.72327    1.000
    C35      C        0.43290    0.89633    0.75659    1.000
    H19      H        0.46760    0.85650    0.78030    1.000
    C36      C        0.48540    0.95458    0.75452    1.000
    C37      C        0.43340    0.01377    0.71900    1.000
    H20      H        0.46890    0.05270    0.71750    1.000
    C38      C        0.27700    0.95674    0.68767    1.000
    H21      H        0.20670    0.95710    0.66480    1.000
    C39      C        0.59910    0.95498    0.79275    1.000
    C40      C        0.32910    0.01531    0.68584    1.000
    C41      C        0.27050    0.07970    0.65023    1.000
    C42      C        0.17900    0.97982    0.02350    1.000
    Zn4      Zn       0.21229    0.43170    0.63213    1.000
    Zn5      Zn       0.04300    0.37430    0.07543    1.000
    Zn6      Zn       0.24981    0.28062    0.10348    1.000
    Co2      Co       0.75772    0.32004    0.69582    1.000
    O16      O        0.83970    0.51979    0.71244    1.000
    O17      O        0.35380    0.50491    0.71232    1.000
    O18      O        0.35573    0.40253    0.66872    1.000
    O19      O        0.85830    0.49483    0.43582    1.000
    O20      O        0.15640    0.42589    0.69820    1.000
    O21      O        0.15490    0.33788    0.58050    1.000
    O22      O        0.75100    0.51165    0.47812    1.000
    O23      O        0.82120    0.57945    0.86863    1.000
    O24      O        0.68170    0.62969    0.85656    1.000
    O25      O        0.26940    0.35960    0.78244    1.000
    O26      O        0.19200    0.31307    0.99747    1.000
    O27      O        0.05670    0.37257    0.98469    1.000
    O28      O        0.74360    0.20655    0.53426    1.000
    O29      O        0.10958    0.23448    0.59802    1.000
    O30      O        0.77360    0.30879    0.88735    1.000
    N7       N        0.65730    0.38688    0.63586    1.000
    N8       N        0.84440    0.40073    0.72332    1.000
    N9       N        0.66540    0.24144    0.66254    1.000
    N10      N        0.78570    0.29098    0.61941    1.000
    N11      N        0.85710    0.25760    0.76560    1.000
    N12      N        0.72790    0.33920    0.77277    1.000
    C43      C        0.55920    0.37430    0.59207    1.000
    H22      H        0.53780    0.32860    0.57960    1.000
    C44      C        0.48930    0.42720    0.56500    1.000
    H23      H        0.42150    0.41730    0.53490    1.000
    C45      C        0.52090    0.49460    0.58290    1.000
    H24      H        0.47430    0.53080    0.56690    1.000
    C46      C        0.62250    0.50850    0.62490    1.000
    H25      H        0.64560    0.55400    0.63560    1.000
    C47      C        0.68900    0.45312    0.65068    1.000
    C48      C        0.80000    0.46133    0.69893    1.000
    C49      C        0.95000    0.39727    0.77043    1.000
    C50      C        0.98560    0.38332    0.84175    1.000
    H26      H        0.94070    0.38400    0.86020    1.000
    C51      C        0.08630    0.36834    0.88625    1.000
    C52      C        0.15390    0.36919    0.85887    1.000
    H27      H        0.22110    0.35660    0.88740    1.000
    C53      C        0.12030    0.38906    0.78836    1.000
    C54      C        0.01870    0.40328    0.74484    1.000
    H28      H        0.99650    0.41700    0.69800    1.000
    C55      C        0.11550    0.34973    0.96291    1.000
    C56      C        0.18960    0.39140    0.75537    1.000
    C57      C        0.60170    0.22014    0.68650    1.000
    H29      H        0.60220    0.24340    0.72480    1.000
    C58      C        0.53660    0.16590    0.65700    1.000
    H30      H        0.49270    0.15290    0.67420    1.000
    C59      C        0.53730    0.13080    0.60120    1.000
    H31      H        0.49290    0.09410    0.57950    1.000
    C60      C        0.60460    0.15080    0.57770    1.000
    H32      H        0.60760    0.12670    0.54110    1.000
    C61      C        0.66670    0.20656    0.60880    1.000
    C62      C        0.73740    0.23499    0.58469    1.000
    C63      C        0.84660    0.32519    0.59330    1.000
    C64      C        0.81160    0.38549    0.55376    1.000
    H33      H        0.75110    0.40500    0.54710    1.000
    C65      C        0.86550    0.41732    0.52371    1.000
    C66      C        0.95680    0.38925    0.53506    1.000
    H34      H        0.99360    0.41060    0.51570    1.000
    C67      C        0.99340    0.32906    0.57552    1.000
    C68      C        0.93850    0.29709    0.60418    1.000
    H35      H        0.96290    0.25660    0.63080    1.000
    C69      C        0.09130    0.29929    0.58540    1.000
    C70      C        0.92790    0.22000    0.76010    1.000
    H36      H        0.93170    0.22170    0.71790    1.000
    C71      C        0.99530    0.17900    0.81460    1.000
    H37      H        0.04460    0.15410    0.80960    1.000
    C72      C        0.98900    0.17490    0.87680    1.000
    H38      H        0.03410    0.14750    0.91430    1.000
    C73      C        0.91510    0.21210    0.88230    1.000
    H39      H        0.90810    0.20930    0.92320    1.000
    C74      C        0.85200    0.25328    0.82671    1.000
    C75      C        0.77930    0.30313    0.83144    1.000
    C76      C        0.67140    0.39770    0.77673    1.000
    C77      C        0.56710    0.39633    0.74341    1.000
    H40      H        0.53240    0.35650    0.71970    1.000
    C78      C        0.51460    0.45458    0.74548    1.000
    C79      C        0.56660    0.51377    0.78100    1.000
    H41      H        0.53110    0.55270    0.78250    1.000
    C80      C        0.72300    0.45674    0.81233    1.000
    H42      H        0.79330    0.45710    0.83520    1.000
    C81      C        0.40090    0.45498    0.70725    1.000
    C82      C        0.67090    0.51531    0.81416    1.000
    C83      C        0.72950    0.57970    0.84977    1.000
    C84      C        0.82100    0.47982    0.47650    1.000
    Zn7      Zn       0.21229    0.06830    0.13213    1.000
    Zn8      Zn       0.04300    0.12570    0.57543    1.000
    Zn9      Zn       0.24981    0.21938    0.60348    1.000
    Co3      Co       0.75772    0.17996    0.19582    1.000
    O31      O        0.83970    0.98021    0.21244    1.000
    O32      O        0.35380    0.99509    0.21232    1.000
    O33      O        0.35573    0.09747    0.16872    1.000
    O34      O        0.85830    0.00517    0.93582    1.000
    O35      O        0.15640    0.07411    0.19820    1.000
    O36      O        0.15490    0.16212    0.08050    1.000
    O37      O        0.75100    0.98835    0.97812    1.000
    O38      O        0.82120    0.92055    0.36863    1.000
    O39      O        0.68170    0.87031    0.35656    1.000
    O40      O        0.26940    0.14040    0.28244    1.000
    O41      O        0.19200    0.18693    0.49747    1.000
    O42      O        0.05670    0.12743    0.48469    1.000
    O43      O        0.74360    0.29345    0.03426    1.000
    O44      O        0.10958    0.26552    0.09802    1.000
    O45      O        0.77360    0.19121    0.38735    1.000
    N13      N        0.65730    0.11312    0.13586    1.000
    N14      N        0.84440    0.09927    0.22332    1.000
    N15      N        0.66540    0.25856    0.16254    1.000
    N16      N        0.78570    0.20902    0.11941    1.000
    N17      N        0.85710    0.24240    0.26560    1.000
    N18      N        0.72790    0.16080    0.27277    1.000
    C85      C        0.55920    0.12570    0.09207    1.000
    H43      H        0.53780    0.17140    0.07960    1.000
    C86      C        0.48930    0.07280    0.06500    1.000
    H44      H        0.42150    0.08270    0.03490    1.000
    C87      C        0.52090    0.00540    0.08290    1.000
    H45      H        0.47430    0.96920    0.06690    1.000
    C88      C        0.62250    0.99150    0.12490    1.000
    H46      H        0.64560    0.94600    0.13560    1.000
    C89      C        0.68900    0.04688    0.15068    1.000
    C90      C        0.80000    0.03867    0.19893    1.000
    C91      C        0.95000    0.10273    0.27043    1.000
    C92      C        0.98560    0.11668    0.34175    1.000
    H47      H        0.94070    0.11600    0.36020    1.000
    C93      C        0.08630    0.13166    0.38625    1.000
    C94      C        0.15390    0.13081    0.35887    1.000
    H48      H        0.22110    0.14340    0.38740    1.000
    C95      C        0.12030    0.11094    0.28836    1.000
    C96      C        0.01870    0.09672    0.24484    1.000
    H49      H        0.99650    0.08300    0.19800    1.000
    C97      C        0.11550    0.15027    0.46291    1.000
    C98      C        0.18960    0.10860    0.25537    1.000
    C99      C        0.60170    0.27986    0.18650    1.000
    H50      H        0.60220    0.25660    0.22480    1.000
    C100     C        0.53660    0.33410    0.15700    1.000
    H51      H        0.49270    0.34710    0.17420    1.000
    C101     C        0.53730    0.36920    0.10120    1.000
    H52      H        0.49290    0.40590    0.07950    1.000
    C102     C        0.60460    0.34920    0.07770    1.000
    H53      H        0.60760    0.37330    0.04110    1.000
    C103     C        0.66670    0.29344    0.10880    1.000
    C104     C        0.73740    0.26501    0.08469    1.000
    C105     C        0.84660    0.17481    0.09330    1.000
    C106     C        0.81160    0.11451    0.05376    1.000
    H54      H        0.75110    0.09500    0.04710    1.000
    C107     C        0.86550    0.08268    0.02371    1.000
    C108     C        0.95680    0.11075    0.03506    1.000
    H55      H        0.99360    0.08940    0.01570    1.000
    C109     C        0.99340    0.17094    0.07552    1.000
    C110     C        0.93850    0.20291    0.10418    1.000
    H56      H        0.96290    0.24340    0.13080    1.000
    C111     C        0.09130    0.20071    0.08540    1.000
    C112     C        0.92790    0.28000    0.26010    1.000
    H57      H        0.93170    0.27830    0.21790    1.000
    C113     C        0.99530    0.32100    0.31460    1.000
    H58      H        0.04460    0.34590    0.30960    1.000
    C114     C        0.98900    0.32510    0.37680    1.000
    H59      H        0.03410    0.35250    0.41430    1.000
    C115     C        0.91510    0.28790    0.38230    1.000
    H60      H        0.90810    0.29070    0.42320    1.000
    C116     C        0.85200    0.24672    0.32671    1.000
    C117     C        0.77930    0.19687    0.33144    1.000
    C118     C        0.67140    0.10230    0.27673    1.000
    C119     C        0.56710    0.10367    0.24341    1.000
    H61      H        0.53240    0.14350    0.21970    1.000
    C120     C        0.51460    0.04542    0.24548    1.000
    C121     C        0.56660    0.98623    0.28100    1.000
    H62      H        0.53110    0.94730    0.28250    1.000
    C122     C        0.72300    0.04326    0.31233    1.000
    H63      H        0.79330    0.04290    0.33520    1.000
    C123     C        0.40090    0.04502    0.20725    1.000
    C124     C        0.67090    0.98469    0.31416    1.000
    C125     C        0.72950    0.92030    0.34977    1.000
    C126     C        0.82100    0.02018    0.97650    1.000
    Zn10     Zn       0.78771    0.56830    0.36787    1.000
    Zn11     Zn       0.95700    0.62570    0.92457    1.000
    Zn12     Zn       0.75019    0.71938    0.89652    1.000
    Co4      Co       0.24228    0.67996    0.30418    1.000
    O46      O        0.16030    0.48021    0.28756    1.000
    O47      O        0.64620    0.49509    0.28768    1.000
    O48      O        0.64427    0.59747    0.33128    1.000
    O49      O        0.14170    0.50517    0.56418    1.000
    O50      O        0.84360    0.57411    0.30180    1.000
    O51      O        0.84510    0.66212    0.41950    1.000
    O52      O        0.24900    0.48835    0.52188    1.000
    O53      O        0.17880    0.42055    0.13137    1.000
    O54      O        0.31830    0.37031    0.14344    1.000
    O55      O        0.73060    0.64040    0.21756    1.000
    O56      O        0.80800    0.68693    0.00253    1.000
    O57      O        0.94330    0.62743    0.01531    1.000
    O58      O        0.25640    0.79345    0.46574    1.000
    O59      O        0.89042    0.76552    0.40198    1.000
    O60      O        0.22640    0.69121    0.11265    1.000
    N19      N        0.34270    0.61312    0.36414    1.000
    N20      N        0.15560    0.59927    0.27668    1.000
    N21      N        0.33460    0.75856    0.33746    1.000
    N22      N        0.21430    0.70902    0.38059    1.000
    N23      N        0.14290    0.74240    0.23440    1.000
    N24      N        0.27210    0.66080    0.22723    1.000
    C127     C        0.44080    0.62570    0.40793    1.000
    H64      H        0.46220    0.67140    0.42040    1.000
    C128     C        0.51070    0.57280    0.43500    1.000
    H65      H        0.57850    0.58270    0.46510    1.000
    C129     C        0.47910    0.50540    0.41710    1.000
    H66      H        0.52570    0.46920    0.43310    1.000
    C130     C        0.37750    0.49150    0.37510    1.000
    H67      H        0.35440    0.44600    0.36440    1.000
    C131     C        0.31100    0.54688    0.34932    1.000
    C132     C        0.20000    0.53867    0.30107    1.000
    C133     C        0.05000    0.60273    0.22957    1.000
    C134     C        0.01440    0.61668    0.15825    1.000
    H68      H        0.05930    0.61600    0.13980    1.000
    C135     C        0.91370    0.63166    0.11375    1.000
    C136     C        0.84610    0.63081    0.14113    1.000
    H69      H        0.77890    0.64340    0.11260    1.000
    C137     C        0.87970    0.61094    0.21164    1.000
    C138     C        0.98130    0.59672    0.25516    1.000
    H70      H        0.00350    0.58300    0.30200    1.000
    C139     C        0.88450    0.65027    0.03709    1.000
    C140     C        0.81040    0.60860    0.24463    1.000
    C141     C        0.39830    0.77986    0.31350    1.000
    H71      H        0.39780    0.75660    0.27520    1.000
    C142     C        0.46340    0.83410    0.34300    1.000
    H72      H        0.50730    0.84710    0.32580    1.000
    C143     C        0.46270    0.86920    0.39880    1.000
    H73      H        0.50710    0.90590    0.42050    1.000
    C144     C        0.39540    0.84920    0.42230    1.000
    H74      H        0.39240    0.87330    0.45890    1.000
    C145     C        0.33330    0.79344    0.39120    1.000
    C146     C        0.26260    0.76501    0.41531    1.000
    C147     C        0.15340    0.67481    0.40670    1.000
    C148     C        0.18840    0.61451    0.44624    1.000
    H75      H        0.24890    0.59500    0.45290    1.000
    C149     C        0.13450    0.58268    0.47629    1.000
    C150     C        0.04320    0.61075    0.46494    1.000
    H76      H        0.00640    0.58940    0.48430    1.000
    C151     C        0.00660    0.67094    0.42448    1.000
    C152     C        0.06150    0.70291    0.39582    1.000
    H77      H        0.03710    0.74340    0.36920    1.000
    C153     C        0.90870    0.70071    0.41460    1.000
    C154     C        0.07210    0.78000    0.23990    1.000
    H78      H        0.06830    0.77830    0.28210    1.000
    C155     C        0.00470    0.82100    0.18540    1.000
    H79      H        0.95540    0.84590    0.19040    1.000
    C156     C        0.01100    0.82510    0.12320    1.000
    H80      H        0.96590    0.85250    0.08570    1.000
    C157     C        0.08490    0.78790    0.11770    1.000
    H81      H        0.09190    0.79070    0.07680    1.000
    C158     C        0.14800    0.74672    0.17329    1.000
    C159     C        0.22070    0.69687    0.16856    1.000
    C160     C        0.32860    0.60230    0.22327    1.000
    C161     C        0.43290    0.60367    0.25659    1.000
    H82      H        0.46760    0.64350    0.28030    1.000
    C162     C        0.48540    0.54542    0.25452    1.000
    C163     C        0.43340    0.48623    0.21900    1.000
    H83      H        0.46890    0.44730    0.21750    1.000
    C164     C        0.27700    0.54326    0.18767    1.000
    H84      H        0.20670    0.54290    0.16480    1.000
    C165     C        0.59910    0.54502    0.29275    1.000
    C166     C        0.32910    0.48469    0.18584    1.000
    C167     C        0.27050    0.42030    0.15023    1.000
    C168     C        0.17900    0.52018    0.52350    1.000
