# CIF file generated by openbabel 3.1.0, see https://openbabel.org
data_I
_chemical_name_common 'image0'
_cell_length_a 10.42
_cell_length_b 10.4523
_cell_length_c 11.6221
_cell_angle_alpha 90
_cell_angle_beta 90
_cell_angle_gamma 90
_space_group_name_H-M_alt 'P 1'
_space_group_name_Hall 'P 1'
loop_
    _symmetry_equiv_pos_as_xyz
    x,y,z
loop_
    _atom_site_label
    _atom_site_type_symbol
    _atom_site_fract_x
    _atom_site_fract_y
    _atom_site_fract_z
    _atom_site_occupancy
    Zn1      Zn       0.55313    0.20064    0.11876    1.000
    P1       P        0.31230    0.16010    0.95510    1.000
    P2       P        0.48680    0.92760    0.19940    1.000
    O1       O        0.56060    0.04890    0.20490    1.000
    O2       O        0.52140    0.83710    0.29440    1.000
    O3       O        0.24480    0.11460    0.06170    1.000
    O4       O        0.45470    0.18970    0.98010    1.000
    O5       O        0.23710    0.27340    0.91160    1.000
    O6       O        0.34550    0.95520    0.19920    1.000
    O7       O        0.51760    0.86530    0.08390    1.000
    O8       O        0.31200    0.05360    0.86490    1.000
    H1       H        0.26300    0.02400    0.08700    1.000
    H2       H        0.23600    0.00500    0.84000    1.000
    H3       H        0.44700    0.85100    0.02800    1.000
    Zn2      Zn       0.94687    0.79936    0.61876    1.000
    P3       P        0.18770    0.83990    0.45510    1.000
    P4       P        0.01320    0.07240    0.69940    1.000
    O9       O        0.93940    0.95110    0.70490    1.000
    O10      O        0.97860    0.16290    0.79440    1.000
    O11      O        0.25520    0.88540    0.56170    1.000
    O12      O        0.04530    0.81030    0.48010    1.000
    O13      O        0.26290    0.72660    0.41160    1.000
    O14      O        0.15450    0.04480    0.69920    1.000
    O15      O        0.98240    0.13470    0.58390    1.000
    O16      O        0.18800    0.94640    0.36490    1.000
    H4       H        0.23700    0.97600    0.58700    1.000
    H5       H        0.26400    0.99500    0.34000    1.000
    H6       H        0.05300    0.14900    0.52800    1.000
    Zn3      Zn       0.44687    0.70064    0.38124    1.000
    P5       P        0.68770    0.66010    0.54490    1.000
    P6       P        0.51320    0.42760    0.30060    1.000
    O17      O        0.43940    0.54890    0.29510    1.000
    O18      O        0.47860    0.33710    0.20560    1.000
    O19      O        0.75520    0.61460    0.43830    1.000
    O20      O        0.54530    0.68970    0.51990    1.000
    O21      O        0.76290    0.77340    0.58840    1.000
    O22      O        0.65450    0.45520    0.30080    1.000
    O23      O        0.48240    0.36530    0.41610    1.000
    O24      O        0.68800    0.55360    0.63510    1.000
    H7       H        0.73700    0.52400    0.41300    1.000
    H8       H        0.76400    0.50500    0.66000    1.000
    H9       H        0.55300    0.35100    0.47200    1.000
    Zn4      Zn       0.05313    0.29936    0.88124    1.000
    P7       P        0.81230    0.33990    0.04490    1.000
    P8       P        0.98680    0.57240    0.80060    1.000
    O25      O        0.06060    0.45110    0.79510    1.000
    O26      O        0.02140    0.66290    0.70560    1.000
    O27      O        0.74480    0.38540    0.93830    1.000
    O28      O        0.95470    0.31030    0.01990    1.000
    O29      O        0.73710    0.22660    0.08840    1.000
    O30      O        0.84550    0.54480    0.80080    1.000
    O31      O        0.01760    0.63470    0.91610    1.000
    O32      O        0.81200    0.44640    0.13510    1.000
    H10      H        0.76300    0.47600    0.91300    1.000
    H11      H        0.73600    0.49500    0.16000    1.000
    H12      H        0.94700    0.64900    0.97200    1.000
