# CIF file generated by openbabel 3.1.0, see https://openbabel.org
data_I
_chemical_name_common 'image0'
_cell_length_a 11.933
_cell_length_b 11.933
_cell_length_c 8.5486
_cell_angle_alpha 90
_cell_angle_beta 90
_cell_angle_gamma 90
_space_group_name_H-M_alt 'P 1'
_space_group_name_Hall 'P 1'
loop_
    _symmetry_equiv_pos_as_xyz
    x,y,z
loop_
    _atom_site_label
    _atom_site_type_symbol
    _atom_site_fract_x
    _atom_site_fract_y
    _atom_site_fract_z
    _atom_site_occupancy
    Ag1      Ag       0.50000    0.50000    0.25000    1.000
    Ag2      Ag       0.50000    0.50000    0.75000    1.000
    Ag3      Ag       0.00000    0.50000    0.00000    1.000
    Ag4      Ag       0.50000    0.00000    0.50000    1.000
    C1       C        0.24160    0.50000    0.12340    1.000
    C2       C        0.20410    0.50000    0.29060    1.000
    N1       N        0.34900    0.50000    0.08150    1.000
    C3       C        0.75840    0.50000    0.12340    1.000
    C4       C        0.79590    0.50000    0.29060    1.000
    N2       N        0.65100    0.50000    0.08150    1.000
    C5       C        0.50000    0.24160    0.62340    1.000
    C6       C        0.50000    0.20410    0.79060    1.000
    N3       N        0.50000    0.34900    0.58150    1.000
    C7       C        0.50000    0.75840    0.62340    1.000
    C8       C        0.50000    0.79590    0.79060    1.000
    N4       N        0.50000    0.65100    0.58150    1.000
    C9       C        0.75840    0.50000    0.87660    1.000
    C10      C        0.79590    0.50000    0.70940    1.000
    N5       N        0.65100    0.50000    0.91850    1.000
    C11      C        0.24160    0.50000    0.87660    1.000
    C12      C        0.20410    0.50000    0.70940    1.000
    N6       N        0.34900    0.50000    0.91850    1.000
    C13      C        0.50000    0.24160    0.37660    1.000
    C14      C        0.50000    0.20410    0.20940    1.000
    N7       N        0.50000    0.34900    0.41850    1.000
    C15      C        0.50000    0.75840    0.37660    1.000
    C16      C        0.50000    0.79590    0.20940    1.000
    N8       N        0.50000    0.65100    0.41850    1.000
    N9       N        0.17240    0.50000    0.00000    1.000
    N10      N        0.82760    0.50000    0.00000    1.000
    N11      N        0.50000    0.17240    0.50000    1.000
    N12      N        0.50000    0.82760    0.50000    1.000
