# CIF file generated by openbabel 3.1.0, see https://openbabel.org
data_I
_chemical_name_common 'image0'
_cell_length_a 11.868
_cell_length_b 14.931
_cell_length_c 17.741
_cell_angle_alpha 90
_cell_angle_beta 90
_cell_angle_gamma 90
_space_group_name_H-M_alt 'P 1'
_space_group_name_Hall 'P 1'
loop_
    _symmetry_equiv_pos_as_xyz
    x,y,z
loop_
    _atom_site_label
    _atom_site_type_symbol
    _atom_site_fract_x
    _atom_site_fract_y
    _atom_site_fract_z
    _atom_site_occupancy
    Mo1      Mo       0.29045    0.11916    0.63722    1.000
    Cu1      Cu       0.29040    0.86067    0.43014    1.000
    N1       N        0.25880    0.98066    0.49310    1.000
    N2       N        0.08160    0.98841    0.69120    1.000
    N3       N        0.09030    0.25040    0.70009    1.000
    N4       N        0.22400    0.26110    0.50229    1.000
    N5       N        0.42020    0.93601    0.69443    1.000
    N6       N        0.30130    0.11020    0.82185    1.000
    N7       N        0.41960    0.30230    0.69456    1.000
    N8       N        0.54370    0.13160    0.56187    1.000
    C1       C        0.26740    0.03100    0.54160    1.000
    C2       C        0.15100    0.03420    0.66800    1.000
    C3       C        0.15710    0.20370    0.67620    1.000
    C4       C        0.24570    0.20900    0.54680    1.000
    C5       C        0.37660    0.99910    0.67140    1.000
    C6       C        0.30240    0.11380    0.75810    1.000
    C7       C        0.37480    0.23920    0.67330    1.000
    C8       C        0.45390    0.12580    0.58460    1.000
    Mo2      Mo       0.20955    0.38084    0.13722    1.000
    Cu2      Cu       0.20960    0.63933    0.93014    1.000
    N9       N        0.24120    0.51934    0.99310    1.000
    N10      N        0.41840    0.51159    0.19120    1.000
    N11      N        0.40970    0.24960    0.20009    1.000
    N12      N        0.27600    0.23890    0.00229    1.000
    N13      N        0.07980    0.56399    0.19443    1.000
    N14      N        0.19870    0.38980    0.32185    1.000
    N15      N        0.08040    0.19770    0.19456    1.000
    N16      N        0.95630    0.36840    0.06187    1.000
    C9       C        0.23260    0.46900    0.04160    1.000
    C10      C        0.34900    0.46580    0.16800    1.000
    C11      C        0.34290    0.29630    0.17620    1.000
    C12      C        0.25430    0.29100    0.04680    1.000
    C13      C        0.12340    0.50090    0.17140    1.000
    C14      C        0.19760    0.38620    0.25810    1.000
    C15      C        0.12520    0.26080    0.17330    1.000
    C16      C        0.04610    0.37420    0.08460    1.000
    Mo3      Mo       0.70955    0.11916    0.86278    1.000
    Cu3      Cu       0.70960    0.86067    0.06986    1.000
    N17      N        0.74120    0.98066    0.00690    1.000
    N18      N        0.91840    0.98841    0.80880    1.000
    N19      N        0.90970    0.25040    0.79991    1.000
    N20      N        0.77600    0.26110    0.99771    1.000
    N21      N        0.57980    0.93601    0.80557    1.000
    N22      N        0.69870    0.11020    0.67815    1.000
    N23      N        0.58040    0.30230    0.80544    1.000
    N24      N        0.45630    0.13160    0.93813    1.000
    C17      C        0.73260    0.03100    0.95840    1.000
    C18      C        0.84900    0.03420    0.83200    1.000
    C19      C        0.84290    0.20370    0.82380    1.000
    C20      C        0.75430    0.20900    0.95320    1.000
    C21      C        0.62340    0.99910    0.82860    1.000
    C22      C        0.69760    0.11380    0.74190    1.000
    C23      C        0.62520    0.23920    0.82670    1.000
    C24      C        0.54610    0.12580    0.91540    1.000
    Mo4      Mo       0.79045    0.38084    0.36278    1.000
    Cu4      Cu       0.79040    0.63933    0.56986    1.000
    N25      N        0.75880    0.51934    0.50690    1.000
    N26      N        0.58160    0.51159    0.30880    1.000
    N27      N        0.59030    0.24960    0.29991    1.000
    N28      N        0.72400    0.23890    0.49771    1.000
    N29      N        0.92020    0.56399    0.30557    1.000
    N30      N        0.80130    0.38980    0.17815    1.000
    N31      N        0.91960    0.19770    0.30544    1.000
    N32      N        0.04370    0.36840    0.43813    1.000
    C25      C        0.76740    0.46900    0.45840    1.000
    C26      C        0.65100    0.46580    0.33200    1.000
    C27      C        0.65710    0.29630    0.32380    1.000
    C28      C        0.74570    0.29100    0.45320    1.000
    C29      C        0.87660    0.50090    0.32860    1.000
    C30      C        0.80240    0.38620    0.24190    1.000
    C31      C        0.87480    0.26080    0.32670    1.000
    C32      C        0.95390    0.37420    0.41540    1.000
    Mo5      Mo       0.70955    0.88084    0.36278    1.000
    Cu5      Cu       0.70960    0.13933    0.56986    1.000
    N33      N        0.74120    0.01934    0.50690    1.000
    N34      N        0.91840    0.01159    0.30880    1.000
    N35      N        0.90970    0.74960    0.29991    1.000
    N36      N        0.77600    0.73890    0.49771    1.000
    N37      N        0.57980    0.06399    0.30557    1.000
    N38      N        0.69870    0.88980    0.17815    1.000
    N39      N        0.58040    0.69770    0.30544    1.000
    N40      N        0.45630    0.86840    0.43813    1.000
    C33      C        0.73260    0.96900    0.45840    1.000
    C34      C        0.84900    0.96580    0.33200    1.000
    C35      C        0.84290    0.79630    0.32380    1.000
    C36      C        0.75430    0.79100    0.45320    1.000
    C37      C        0.62340    0.00090    0.32860    1.000
    C38      C        0.69760    0.88620    0.24190    1.000
    C39      C        0.62520    0.76080    0.32670    1.000
    C40      C        0.54610    0.87420    0.41540    1.000
    Mo6      Mo       0.79045    0.61916    0.86278    1.000
    Cu6      Cu       0.79040    0.36067    0.06986    1.000
    N41      N        0.75880    0.48066    0.00690    1.000
    N42      N        0.58160    0.48841    0.80880    1.000
    N43      N        0.59030    0.75040    0.79991    1.000
    N44      N        0.72400    0.76110    0.99771    1.000
    N45      N        0.92020    0.43601    0.80557    1.000
    N46      N        0.80130    0.61020    0.67815    1.000
    N47      N        0.91960    0.80230    0.80544    1.000
    N48      N        0.04370    0.63160    0.93813    1.000
    C41      C        0.76740    0.53100    0.95840    1.000
    C42      C        0.65100    0.53420    0.83200    1.000
    C43      C        0.65710    0.70370    0.82380    1.000
    C44      C        0.74570    0.70900    0.95320    1.000
    C45      C        0.87660    0.49910    0.82860    1.000
    C46      C        0.80240    0.61380    0.74190    1.000
    C47      C        0.87480    0.73920    0.82670    1.000
    C48      C        0.95390    0.62580    0.91540    1.000
    Mo7      Mo       0.29045    0.88084    0.13722    1.000
    Cu7      Cu       0.29040    0.13933    0.93014    1.000
    N49      N        0.25880    0.01934    0.99310    1.000
    N50      N        0.08160    0.01159    0.19120    1.000
    N51      N        0.09030    0.74960    0.20009    1.000
    N52      N        0.22400    0.73890    0.00229    1.000
    N53      N        0.42020    0.06399    0.19443    1.000
    N54      N        0.30130    0.88980    0.32185    1.000
    N55      N        0.41960    0.69770    0.19456    1.000
    N56      N        0.54370    0.86840    0.06187    1.000
    C49      C        0.26740    0.96900    0.04160    1.000
    C50      C        0.15100    0.96580    0.16800    1.000
    C51      C        0.15710    0.79630    0.17620    1.000
    C52      C        0.24570    0.79100    0.04680    1.000
    C53      C        0.37660    0.00090    0.17140    1.000
    C54      C        0.30240    0.88620    0.25810    1.000
    C55      C        0.37480    0.76080    0.17330    1.000
    C56      C        0.45390    0.87420    0.08460    1.000
    Mo8      Mo       0.20955    0.61916    0.63722    1.000
    Cu8      Cu       0.20960    0.36067    0.43014    1.000
    N57      N        0.24120    0.48066    0.49310    1.000
    N58      N        0.41840    0.48841    0.69120    1.000
    N59      N        0.40970    0.75040    0.70009    1.000
    N60      N        0.27600    0.76110    0.50229    1.000
    N61      N        0.07980    0.43601    0.69443    1.000
    N62      N        0.19870    0.61020    0.82185    1.000
    N63      N        0.08040    0.80230    0.69456    1.000
    N64      N        0.95630    0.63160    0.56187    1.000
    C57      C        0.23260    0.53100    0.54160    1.000
    C58      C        0.34900    0.53420    0.66800    1.000
    C59      C        0.34290    0.70370    0.67620    1.000
    C60      C        0.25430    0.70900    0.54680    1.000
    C61      C        0.12340    0.49910    0.67140    1.000
    C62      C        0.19760    0.61380    0.75810    1.000
    C63      C        0.12520    0.73920    0.67330    1.000
    C64      C        0.04610    0.62580    0.58460    1.000
    Cu9      Cu       0.00000    0.89666    0.75000    1.000
    Cu10     Cu       0.00000    0.34278    0.75000    1.000
    Cu11     Cu       0.50000    0.60334    0.25000    1.000
    Cu12     Cu       0.50000    0.15722    0.25000    1.000
    Cu13     Cu       0.00000    0.10334    0.25000    1.000
    Cu14     Cu       0.00000    0.65722    0.25000    1.000
    Cu15     Cu       0.50000    0.39666    0.75000    1.000
    Cu16     Cu       0.50000    0.84278    0.75000    1.000
