# CIF file generated by openbabel 3.1.0, see https://openbabel.org
data_I
_chemical_name_common 'image0'
_cell_length_a 5.585
_cell_length_b 11.359
_cell_length_c 14.624
_cell_angle_alpha 98.03
_cell_angle_beta 99
_cell_angle_gamma 103.86
_space_group_name_H-M_alt 'P 1'
_space_group_name_Hall 'P 1'
loop_
    _symmetry_equiv_pos_as_xyz
    x,y,z
loop_
    _atom_site_label
    _atom_site_type_symbol
    _atom_site_fract_x
    _atom_site_fract_y
    _atom_site_fract_z
    _atom_site_occupancy
    U1       U        0.26100    0.20118    0.42509    1.000
    U2       U        0.45960    0.24486    0.07682    1.000
    Na1      Na       0.88200    0.25220    0.86570    1.000
    O1       O        0.06700    0.33900    0.34600    1.000
    O2       O        0.70900    0.11900    0.15900    1.000
    O3       O        0.23300    0.03500    0.09490    1.000
    O4       O        0.63600    0.20700    0.99480    1.000
    O5       O        0.71300    0.45800    0.08060    1.000
    O6       O        0.99000    0.10300    0.28000    1.000
    O7       O        0.80000    0.35700    0.22280    1.000
    O8       O        0.90700    0.87100    0.04780    1.000
    O9       O        0.51100    0.14600    0.55680    1.000
    O10      O        0.73700    0.63500    0.02900    1.000
    O11      O        0.68900    0.00600    0.60930    1.000
    C1       C        0.04600    0.97500    0.04200    1.000
    C2       C        0.91300    0.29900    0.27100    1.000
    C3       C        0.86100    0.16200    0.23300    1.000
    C4       C        0.62300    0.52700    0.03100    1.000
    C5       C        0.55800    0.04300    0.54600    1.000
    U3       U        0.73900    0.79882    0.57491    1.000
    U4       U        0.54040    0.75514    0.92318    1.000
    Na2      Na       0.11800    0.74780    0.13430    1.000
    O12      O        0.93300    0.66100    0.65400    1.000
    O13      O        0.29100    0.88100    0.84100    1.000
    O14      O        0.76700    0.96500    0.90510    1.000
    O15      O        0.36400    0.79300    0.00520    1.000
    O16      O        0.28700    0.54200    0.91940    1.000
    O17      O        0.01000    0.89700    0.72000    1.000
    O18      O        0.20000    0.64300    0.77720    1.000
    O19      O        0.09300    0.12900    0.95220    1.000
    O20      O        0.48900    0.85400    0.44320    1.000
    O21      O        0.26300    0.36500    0.97100    1.000
    O22      O        0.31100    0.99400    0.39070    1.000
    C6       C        0.95400    0.02500    0.95800    1.000
    C7       C        0.08700    0.70100    0.72900    1.000
    C8       C        0.13900    0.83800    0.76700    1.000
    C9       C        0.37700    0.47300    0.96900    1.000
    C10      C        0.44200    0.95700    0.45400    1.000
