# CIF file generated by openbabel 3.1.0, see https://openbabel.org
data_I
_chemical_name_common 'image0'
_cell_length_a 18.338
_cell_length_b 14.619
_cell_length_c 12.379
_cell_angle_alpha 90
_cell_angle_beta 113
_cell_angle_gamma 90
_space_group_name_H-M_alt 'P 1'
_space_group_name_Hall 'P 1'
loop_
    _symmetry_equiv_pos_as_xyz
    x,y,z
loop_
    _atom_site_label
    _atom_site_type_symbol
    _atom_site_fract_x
    _atom_site_fract_y
    _atom_site_fract_z
    _atom_site_occupancy
    Ag1      Ag       0.24828    0.19738    0.74462    1.000
    Ag2      Ag       0.07769    0.19023    0.87525    1.000
    Cr1      Cr       0.29050    0.49563    0.47614    1.000
    O1       O        0.35220    0.42180    0.61300    1.000
    O2       O        0.20680    0.40870    0.46480    1.000
    O3       O        0.34200    0.29970    0.71660    1.000
    O4       O        0.18380    0.28750    0.55790    1.000
    C1       C        0.31410    0.35530    0.63550    1.000
    C2       C        0.22680    0.34770    0.54550    1.000
    O5       O        0.21990    0.56910    0.34300    1.000
    O6       O        0.25800    0.58450    0.56800    1.000
    O7       O        0.14770    0.30390    0.80620    1.000
    O8       O        0.31590    0.21030    0.95590    1.000
    C3       C        0.18950    0.63910    0.37270    1.000
    C4       C        0.21010    0.64680    0.50470    1.000
    O9       O        0.38340    0.57040    0.48890    1.000
    O10      O        0.32710    0.42240    0.37230    1.000
    O11      O        0.52550    0.41370    0.58620    1.000
    O12      O        0.57930    0.58290    0.69940    1.000
    C5       C        0.41890    0.54560    0.42490    1.000
    C6       C        0.38770    0.45350    0.35930    1.000
    Cs1      Cs       0.50880    0.21450    0.86020    1.000
    Ag3      Ag       0.57490    0.15890    0.80220    1.000
    Ag4      Ag       0.54690    0.24300    0.94130    1.000
    O13      O        0.99490    0.30110    0.89820    1.000
    Ag5      Ag       0.74828    0.69738    0.74462    1.000
    Ag6      Ag       0.57769    0.69023    0.87525    1.000
    Cr2      Cr       0.79050    0.99563    0.47614    1.000
    O14      O        0.85220    0.92180    0.61300    1.000
    O15      O        0.70680    0.90870    0.46480    1.000
    O16      O        0.84200    0.79970    0.71660    1.000
    O17      O        0.68380    0.78750    0.55790    1.000
    C7       C        0.81410    0.85530    0.63550    1.000
    C8       C        0.72680    0.84770    0.54550    1.000
    O18      O        0.71990    0.06910    0.34300    1.000
    O19      O        0.75800    0.08450    0.56800    1.000
    O20      O        0.64770    0.80390    0.80620    1.000
    O21      O        0.81590    0.71030    0.95590    1.000
    C9       C        0.68950    0.13910    0.37270    1.000
    C10      C        0.71010    0.14680    0.50470    1.000
    O22      O        0.88340    0.07040    0.48890    1.000
    O23      O        0.82710    0.92240    0.37230    1.000
    O24      O        0.02550    0.91370    0.58620    1.000
    O25      O        0.07930    0.08290    0.69940    1.000
    C11      C        0.91890    0.04560    0.42490    1.000
    C12      C        0.88770    0.95350    0.35930    1.000
    Cs2      Cs       0.00880    0.71450    0.86020    1.000
    Ag7      Ag       0.07490    0.65890    0.80220    1.000
    Ag8      Ag       0.04690    0.74300    0.94130    1.000
    O26      O        0.49490    0.80110    0.89820    1.000
    Ag9      Ag       0.75172    0.19738    0.75538    1.000
    Ag10     Ag       0.92231    0.19023    0.62475    1.000
    Cr3      Cr       0.70950    0.49563    0.02386    1.000
    O27      O        0.64780    0.42180    0.88700    1.000
    O28      O        0.79320    0.40870    0.03520    1.000
    O29      O        0.65800    0.29970    0.78340    1.000
    O30      O        0.81620    0.28750    0.94210    1.000
    C13      C        0.68590    0.35530    0.86450    1.000
    C14      C        0.77320    0.34770    0.95450    1.000
    O31      O        0.78010    0.56910    0.15700    1.000
    O32      O        0.74200    0.58450    0.93200    1.000
    O33      O        0.85230    0.30390    0.69380    1.000
    O34      O        0.68410    0.21030    0.54410    1.000
    C15      C        0.81050    0.63910    0.12730    1.000
    C16      C        0.78990    0.64680    0.99530    1.000
    O35      O        0.61660    0.57040    0.01110    1.000
    O36      O        0.67290    0.42240    0.12770    1.000
    O37      O        0.47450    0.41370    0.91380    1.000
    O38      O        0.42070    0.58290    0.80060    1.000
    C17      C        0.58110    0.54560    0.07510    1.000
    C18      C        0.61230    0.45350    0.14070    1.000
    Cs3      Cs       0.49120    0.21450    0.63980    1.000
    Ag11     Ag       0.42510    0.15890    0.69780    1.000
    Ag12     Ag       0.45310    0.24300    0.55870    1.000
    O39      O        0.00510    0.30110    0.60180    1.000
    Ag13     Ag       0.25172    0.69738    0.75538    1.000
    Ag14     Ag       0.42231    0.69023    0.62475    1.000
    Cr4      Cr       0.20950    0.99563    0.02386    1.000
    O40      O        0.14780    0.92180    0.88700    1.000
    O41      O        0.29320    0.90870    0.03520    1.000
    O42      O        0.15800    0.79970    0.78340    1.000
    O43      O        0.31620    0.78750    0.94210    1.000
    C19      C        0.18590    0.85530    0.86450    1.000
    C20      C        0.27320    0.84770    0.95450    1.000
    O44      O        0.28010    0.06910    0.15700    1.000
    O45      O        0.24200    0.08450    0.93200    1.000
    O46      O        0.35230    0.80390    0.69380    1.000
    O47      O        0.18410    0.71030    0.54410    1.000
    C21      C        0.31050    0.13910    0.12730    1.000
    C22      C        0.28990    0.14680    0.99530    1.000
    O48      O        0.11660    0.07040    0.01110    1.000
    O49      O        0.17290    0.92240    0.12770    1.000
    O50      O        0.97450    0.91370    0.91380    1.000
    O51      O        0.92070    0.08290    0.80060    1.000
    C23      C        0.08110    0.04560    0.07510    1.000
    C24      C        0.11230    0.95350    0.14070    1.000
    Cs4      Cs       0.99120    0.71450    0.63980    1.000
    Ag15     Ag       0.92510    0.65890    0.69780    1.000
    Ag16     Ag       0.95310    0.74300    0.55870    1.000
    O52      O        0.50510    0.80110    0.60180    1.000
    Ag17     Ag       0.75172    0.80262    0.25538    1.000
    Ag18     Ag       0.92231    0.80977    0.12475    1.000
    Cr5      Cr       0.70950    0.50437    0.52386    1.000
    O53      O        0.64780    0.57820    0.38700    1.000
    O54      O        0.79320    0.59130    0.53520    1.000
    O55      O        0.65800    0.70030    0.28340    1.000
    O56      O        0.81620    0.71250    0.44210    1.000
    C25      C        0.68590    0.64470    0.36450    1.000
    C26      C        0.77320    0.65230    0.45450    1.000
    O57      O        0.78010    0.43090    0.65700    1.000
    O58      O        0.74200    0.41550    0.43200    1.000
    O59      O        0.85230    0.69610    0.19380    1.000
    O60      O        0.68410    0.78970    0.04410    1.000
    C27      C        0.81050    0.36090    0.62730    1.000
    C28      C        0.78990    0.35320    0.49530    1.000
    O61      O        0.61660    0.42960    0.51110    1.000
    O62      O        0.67290    0.57760    0.62770    1.000
    O63      O        0.47450    0.58630    0.41380    1.000
    O64      O        0.42070    0.41710    0.30060    1.000
    C29      C        0.58110    0.45440    0.57510    1.000
    C30      C        0.61230    0.54650    0.64070    1.000
    Cs5      Cs       0.49120    0.78550    0.13980    1.000
    Ag19     Ag       0.42510    0.84110    0.19780    1.000
    Ag20     Ag       0.45310    0.75700    0.05870    1.000
    O65      O        0.00510    0.69890    0.10180    1.000
    Ag21     Ag       0.25172    0.30262    0.25538    1.000
    Ag22     Ag       0.42231    0.30977    0.12475    1.000
    Cr6      Cr       0.20950    0.00437    0.52386    1.000
    O66      O        0.14780    0.07820    0.38700    1.000
    O67      O        0.29320    0.09130    0.53520    1.000
    O68      O        0.15800    0.20030    0.28340    1.000
    O69      O        0.31620    0.21250    0.44210    1.000
    C31      C        0.18590    0.14470    0.36450    1.000
    C32      C        0.27320    0.15230    0.45450    1.000
    O70      O        0.28010    0.93090    0.65700    1.000
    O71      O        0.24200    0.91550    0.43200    1.000
    O72      O        0.35230    0.19610    0.19380    1.000
    O73      O        0.18410    0.28970    0.04410    1.000
    C33      C        0.31050    0.86090    0.62730    1.000
    C34      C        0.28990    0.85320    0.49530    1.000
    O74      O        0.11660    0.92960    0.51110    1.000
    O75      O        0.17290    0.07760    0.62770    1.000
    O76      O        0.97450    0.08630    0.41380    1.000
    O77      O        0.92070    0.91710    0.30060    1.000
    C35      C        0.08110    0.95440    0.57510    1.000
    C36      C        0.11230    0.04650    0.64070    1.000
    Cs6      Cs       0.99120    0.28550    0.13980    1.000
    Ag23     Ag       0.92510    0.34110    0.19780    1.000
    Ag24     Ag       0.95310    0.25700    0.05870    1.000
    O78      O        0.50510    0.19890    0.10180    1.000
    Ag25     Ag       0.24828    0.80262    0.24462    1.000
    Ag26     Ag       0.07769    0.80977    0.37525    1.000
    Cr7      Cr       0.29050    0.50437    0.97614    1.000
    O79      O        0.35220    0.57820    0.11300    1.000
    O80      O        0.20680    0.59130    0.96480    1.000
    O81      O        0.34200    0.70030    0.21660    1.000
    O82      O        0.18380    0.71250    0.05790    1.000
    C37      C        0.31410    0.64470    0.13550    1.000
    C38      C        0.22680    0.65230    0.04550    1.000
    O83      O        0.21990    0.43090    0.84300    1.000
    O84      O        0.25800    0.41550    0.06800    1.000
    O85      O        0.14770    0.69610    0.30620    1.000
    O86      O        0.31590    0.78970    0.45590    1.000
    C39      C        0.18950    0.36090    0.87270    1.000
    C40      C        0.21010    0.35320    0.00470    1.000
    O87      O        0.38340    0.42960    0.98890    1.000
    O88      O        0.32710    0.57760    0.87230    1.000
    O89      O        0.52550    0.58630    0.08620    1.000
    O90      O        0.57930    0.41710    0.19940    1.000
    C41      C        0.41890    0.45440    0.92490    1.000
    C42      C        0.38770    0.54650    0.85930    1.000
    Cs7      Cs       0.50880    0.78550    0.36020    1.000
    Ag27     Ag       0.57490    0.84110    0.30220    1.000
    Ag28     Ag       0.54690    0.75700    0.44130    1.000
    O91      O        0.99490    0.69890    0.39820    1.000
    Ag29     Ag       0.74828    0.30262    0.24462    1.000
    Ag30     Ag       0.57769    0.30977    0.37525    1.000
    Cr8      Cr       0.79050    0.00437    0.97614    1.000
    O92      O        0.85220    0.07820    0.11300    1.000
    O93      O        0.70680    0.09130    0.96480    1.000
    O94      O        0.84200    0.20030    0.21660    1.000
    O95      O        0.68380    0.21250    0.05790    1.000
    C43      C        0.81410    0.14470    0.13550    1.000
    C44      C        0.72680    0.15230    0.04550    1.000
    O96      O        0.71990    0.93090    0.84300    1.000
    O97      O        0.75800    0.91550    0.06800    1.000
    O98      O        0.64770    0.19610    0.30620    1.000
    O99      O        0.81590    0.28970    0.45590    1.000
    C45      C        0.68950    0.86090    0.87270    1.000
    C46      C        0.71010    0.85320    0.00470    1.000
    O100     O        0.88340    0.92960    0.98890    1.000
    O101     O        0.82710    0.07760    0.87230    1.000
    O102     O        0.02550    0.08630    0.08620    1.000
    O103     O        0.07930    0.91710    0.19940    1.000
    C47      C        0.91890    0.95440    0.92490    1.000
    C48      C        0.88770    0.04650    0.85930    1.000
    Cs8      Cs       0.00880    0.28550    0.36020    1.000
    Ag31     Ag       0.07490    0.34110    0.30220    1.000
    Ag32     Ag       0.04690    0.25700    0.44130    1.000
    O104     O        0.49490    0.19890    0.39820    1.000
    Ag33     Ag       0.50000    0.46263    0.75000    1.000
    Ag34     Ag       0.00000    0.96263    0.75000    1.000
    Ag35     Ag       0.50000    0.53737    0.25000    1.000
    Ag36     Ag       0.00000    0.03737    0.25000    1.000
