# CIF file generated by openbabel 3.1.0, see https://openbabel.org
data_I
_chemical_name_common 'image0'
_cell_length_a 15.692
_cell_length_b 8.8335
_cell_length_c 9.529
_cell_angle_alpha 90
_cell_angle_beta 125.56
_cell_angle_gamma 90
_space_group_name_H-M_alt 'P 1'
_space_group_name_Hall 'P 1'
loop_
    _symmetry_equiv_pos_as_xyz
    x,y,z
loop_
    _atom_site_label
    _atom_site_type_symbol
    _atom_site_fract_x
    _atom_site_fract_y
    _atom_site_fract_z
    _atom_site_occupancy
    N1       N        0.20422    0.03390    0.08460    1.000
    N2       N        0.24870    0.96800    0.21630    1.000
    N3       N        0.29283    0.89890    0.34520    1.000
    N4       N        0.42276    0.22870    0.24280    1.000
    N5       N        0.70422    0.53390    0.08460    1.000
    N6       N        0.74870    0.46800    0.21630    1.000
    N7       N        0.79283    0.39890    0.34520    1.000
    N8       N        0.92276    0.72870    0.24280    1.000
    N9       N        0.79578    0.03390    0.41540    1.000
    N10      N        0.75130    0.96800    0.28370    1.000
    N11      N        0.70717    0.89890    0.15480    1.000
    N12      N        0.57724    0.22870    0.25720    1.000
    N13      N        0.29578    0.53390    0.41540    1.000
    N14      N        0.25130    0.46800    0.28370    1.000
    N15      N        0.20717    0.39890    0.15480    1.000
    N16      N        0.07724    0.72870    0.25720    1.000
    N17      N        0.79578    0.96610    0.91540    1.000
    N18      N        0.75130    0.03200    0.78370    1.000
    N19      N        0.70717    0.10110    0.65480    1.000
    N20      N        0.57724    0.77130    0.75720    1.000
    N21      N        0.29578    0.46610    0.91540    1.000
    N22      N        0.25130    0.53200    0.78370    1.000
    N23      N        0.20717    0.60110    0.65480    1.000
    N24      N        0.07724    0.27130    0.75720    1.000
    N25      N        0.20422    0.96610    0.58460    1.000
    N26      N        0.24870    0.03200    0.71630    1.000
    N27      N        0.29283    0.10110    0.84520    1.000
    N28      N        0.42276    0.77130    0.74280    1.000
    N29      N        0.70422    0.46610    0.58460    1.000
    N30      N        0.74870    0.53200    0.71630    1.000
    N31      N        0.79283    0.60110    0.84520    1.000
    N32      N        0.92276    0.27130    0.74280    1.000
    Cd1      Cd       0.25000    0.25000    0.00000    1.000
    Cd2      Cd       0.75000    0.25000    0.50000    1.000
    Cd3      Cd       0.75000    0.75000    0.00000    1.000
    Cd4      Cd       0.25000    0.75000    0.50000    1.000
    N33      N        0.50000    0.23000    0.25000    1.000
    N34      N        0.00000    0.73000    0.25000    1.000
    N35      N        0.50000    0.77000    0.75000    1.000
    N36      N        0.00000    0.27000    0.75000    1.000
