# CIF file generated by openbabel 3.1.0, see https://openbabel.org
data_I
_chemical_name_common 'DICVAO_clean'
_cell_length_a 8.1881
_cell_length_b 16.5888
_cell_length_c 26.7362
_cell_angle_alpha 90
_cell_angle_beta 90
_cell_angle_gamma 100.939
_space_group_name_H-M_alt 'P 1'
_space_group_name_Hall 'P 1'
loop_
    _symmetry_equiv_pos_as_xyz
    x,y,z
loop_
    _atom_site_label
    _atom_site_type_symbol
    _atom_site_fract_x
    _atom_site_fract_y
    _atom_site_fract_z
    _atom_site_occupancy
    Nd1      Nd       0.78511    0.76964    0.74410    1.000
    Nd2      Nd       0.71489    0.23036    0.24410    1.000
    Nd3      Nd       0.21489    0.23036    0.25590    1.000
    Nd4      Nd       0.28511    0.76964    0.75590    1.000
    H1       H        0.10300    0.57900    0.81400    1.000
    H2       H        0.81640    0.46890    0.78280    1.000
    H3       H        0.98770    0.48520    0.75460    1.000
    H4       H        0.11340    0.42590    0.82000    1.000
    H5       H        0.95640    0.36260    0.80230    1.000
    H6       H        0.92060    0.48450    0.92790    1.000
    H7       H        0.09110    0.50250    0.89930    1.000
    H8       H        0.79420    0.54890    0.86600    1.000
    H9       H        0.95390    0.61020    0.88370    1.000
    H10      H        0.50300    0.99300    0.78200    1.000
    H11      H        0.68410    0.99600    0.87340    1.000
    H12      H        0.50000    0.94930    0.86640    1.000
    H13      H        0.50720    0.08020    0.90560    1.000
    H14      H        0.40760    0.07440    0.85510    1.000
    H15      H        0.57080    0.15140    0.77810    1.000
    H16      H        0.75480    0.19500    0.78880    1.000
    H17      H        0.74220    0.06890    0.74530    1.000
    H18      H        0.84000    0.07020    0.79580    1.000
    H19      H        0.36100    0.32200    0.08600    1.000
    H20      H        0.71320    0.33670    0.08600    1.000
    H21      H        0.62290    0.41120    0.09420    1.000
    H22      H        0.35090    0.17960    0.07810    1.000
    H23      H        0.54600    0.19400    0.07760    1.000
    H24      H        0.34780    0.24660    0.00160    1.000
    H25      H        0.45510    0.17820    0.99500    1.000
    H26      H        0.71100    0.40670    0.01120    1.000
    H27      H        0.51650    0.39670    0.01360    1.000
    H28      H        0.39700    0.42100    0.31400    1.000
    H29      H        0.68360    0.53110    0.28280    1.000
    H30      H        0.51230    0.51480    0.25460    1.000
    H31      H        0.38660    0.57410    0.32000    1.000
    H32      H        0.54360    0.63740    0.30230    1.000
    H33      H        0.57940    0.51550    0.42790    1.000
    H34      H        0.40890    0.49750    0.39930    1.000
    H35      H        0.70580    0.45110    0.36600    1.000
    H36      H        0.54610    0.38980    0.38370    1.000
    H37      H        0.99700    0.00700    0.28200    1.000
    H38      H        0.81590    0.00400    0.37340    1.000
    H39      H        0.00000    0.05070    0.36640    1.000
    H40      H        0.99280    0.91980    0.40560    1.000
    H41      H        0.09240    0.92560    0.35510    1.000
    H42      H        0.92920    0.84860    0.27810    1.000
    H43      H        0.74520    0.80500    0.28880    1.000
    H44      H        0.75780    0.93110    0.24530    1.000
    H45      H        0.66000    0.92980    0.29580    1.000
    H46      H        0.13900    0.67800    0.58600    1.000
    H47      H        0.78680    0.66330    0.58600    1.000
    H48      H        0.87710    0.58880    0.59420    1.000
    H49      H        0.14910    0.82040    0.57810    1.000
    H50      H        0.95400    0.80600    0.57760    1.000
    H51      H        0.15220    0.75340    0.50160    1.000
    H52      H        0.04490    0.82180    0.49500    1.000
    H53      H        0.78900    0.59330    0.51120    1.000
    H54      H        0.98350    0.60330    0.51360    1.000
    H55      H        0.89700    0.42100    0.18600    1.000
    H56      H        0.18360    0.53110    0.21720    1.000
    H57      H        0.01230    0.51480    0.24540    1.000
    H58      H        0.88660    0.57410    0.18000    1.000
    H59      H        0.04360    0.63740    0.19770    1.000
    H60      H        0.07940    0.51550    0.07210    1.000
    H61      H        0.90890    0.49750    0.10070    1.000
    H62      H        0.20580    0.45110    0.13400    1.000
    H63      H        0.04610    0.38980    0.11630    1.000
    H64      H        0.49700    0.00700    0.21800    1.000
    H65      H        0.31590    0.00400    0.12660    1.000
    H66      H        0.50000    0.05070    0.13360    1.000
    H67      H        0.49280    0.91980    0.09440    1.000
    H68      H        0.59240    0.92560    0.14490    1.000
    H69      H        0.42920    0.84860    0.22190    1.000
    H70      H        0.24520    0.80500    0.21120    1.000
    H71      H        0.25780    0.93110    0.25470    1.000
    H72      H        0.16000    0.92980    0.20420    1.000
    H73      H        0.63900    0.67800    0.91400    1.000
    H74      H        0.28680    0.66330    0.91400    1.000
    H75      H        0.37710    0.58880    0.90580    1.000
    H76      H        0.64910    0.82040    0.92190    1.000
    H77      H        0.45400    0.80600    0.92240    1.000
    H78      H        0.65220    0.75340    0.99840    1.000
    H79      H        0.54490    0.82180    0.00500    1.000
    H80      H        0.28900    0.59330    0.98880    1.000
    H81      H        0.48350    0.60330    0.98640    1.000
    H82      H        0.60300    0.57900    0.68600    1.000
    H83      H        0.31640    0.46890    0.71720    1.000
    H84      H        0.48770    0.48520    0.74540    1.000
    H85      H        0.61340    0.42590    0.68000    1.000
    H86      H        0.45640    0.36260    0.69770    1.000
    H87      H        0.42060    0.48450    0.57210    1.000
    H88      H        0.59110    0.50250    0.60070    1.000
    H89      H        0.29420    0.54890    0.63400    1.000
    H90      H        0.45390    0.61020    0.61630    1.000
    H91      H        0.00300    0.99300    0.71800    1.000
    H92      H        0.18410    0.99600    0.62660    1.000
    H93      H        0.00000    0.94930    0.63360    1.000
    H94      H        0.00720    0.08020    0.59440    1.000
    H95      H        0.90760    0.07440    0.64490    1.000
    H96      H        0.07080    0.15140    0.72190    1.000
    H97      H        0.25480    0.19500    0.71120    1.000
    H98      H        0.24220    0.06890    0.75470    1.000
    H99      H        0.34000    0.07020    0.70420    1.000
    H100     H        0.86100    0.32200    0.41400    1.000
    H101     H        0.21320    0.33670    0.41400    1.000
    H102     H        0.12290    0.41120    0.40580    1.000
    H103     H        0.85090    0.17960    0.42190    1.000
    H104     H        0.04600    0.19400    0.42240    1.000
    H105     H        0.84780    0.24660    0.49840    1.000
    H106     H        0.95510    0.17820    0.50500    1.000
    H107     H        0.21100    0.40670    0.48880    1.000
    H108     H        0.01650    0.39670    0.48640    1.000
    C1       C        0.92220    0.63060    0.78510    1.000
    C2       C        0.66010    0.91600    0.78420    1.000
    C3       C        0.98170    0.56440    0.81260    1.000
    C4       C        0.93610    0.48250    0.78740    1.000
    C5       C        0.99290    0.41540    0.81840    1.000
    C6       C        0.97140    0.48970    0.89500    1.000
    C7       C        0.91480    0.55850    0.86660    1.000
    C8       C        0.82260    0.34600    0.88770    1.000
    C9       C        0.61000    0.99210    0.79860    1.000
    C10      C        0.58080    0.99690    0.85580    1.000
    C11      C        0.51690    0.07630    0.86960    1.000
    C12      C        0.67640    0.21890    0.87850    1.000
    C13      C        0.44960    0.28290    0.15230    1.000
    C14      C        0.67030    0.14750    0.79700    1.000
    C15      C        0.73120    0.06980    0.78140    1.000
    C16      C        0.66230    0.28780    0.94980    1.000
    C17      C        0.45820    0.29920    0.09540    1.000
    C18      C        0.61520    0.35870    0.07740    1.000
    C19      C        0.45070    0.21760    0.06810    1.000
    C20      C        0.45010    0.22970    0.01160    1.000
    C21      C        0.60970    0.37080    0.02210    1.000
    C22      C        0.57780    0.36940    0.28510    1.000
    C23      C        0.83990    0.08400    0.28420    1.000
    C24      C        0.51830    0.43560    0.31260    1.000
    C25      C        0.56390    0.51750    0.28740    1.000
    C26      C        0.50710    0.58460    0.31840    1.000
    C27      C        0.52860    0.51030    0.39500    1.000
    C28      C        0.58520    0.44150    0.36660    1.000
    C29      C        0.67740    0.65400    0.38770    1.000
    C30      C        0.89000    0.00790    0.29860    1.000
    C31      C        0.91920    0.00310    0.35580    1.000
    C32      C        0.98310    0.92370    0.36960    1.000
    C33      C        0.82360    0.78110    0.37850    1.000
    C34      C        0.05040    0.71710    0.65230    1.000
    C35      C        0.82970    0.85250    0.29700    1.000
    C36      C        0.76880    0.93020    0.28140    1.000
    C37      C        0.83770    0.71220    0.44980    1.000
    C38      C        0.04180    0.70080    0.59540    1.000
    C39      C        0.88480    0.64130    0.57740    1.000
    C40      C        0.04930    0.78240    0.56810    1.000
    C41      C        0.04990    0.77030    0.51160    1.000
    C42      C        0.89030    0.62920    0.52210    1.000
    C43      C        0.07780    0.36940    0.21490    1.000
    C44      C        0.33990    0.08400    0.21580    1.000
    C45      C        0.01830    0.43560    0.18740    1.000
    C46      C        0.06390    0.51750    0.21260    1.000
    C47      C        0.00710    0.58460    0.18160    1.000
    C48      C        0.02860    0.51030    0.10500    1.000
    C49      C        0.08520    0.44150    0.13340    1.000
    C50      C        0.17740    0.65400    0.11230    1.000
    C51      C        0.39000    0.00790    0.20140    1.000
    C52      C        0.41920    0.00310    0.14420    1.000
    C53      C        0.48310    0.92370    0.13040    1.000
    C54      C        0.32360    0.78110    0.12150    1.000
    C55      C        0.55040    0.71710    0.84770    1.000
    C56      C        0.32970    0.85250    0.20300    1.000
    C57      C        0.26880    0.93020    0.21860    1.000
    C58      C        0.33770    0.71220    0.05020    1.000
    C59      C        0.54180    0.70080    0.90460    1.000
    C60      C        0.38480    0.64130    0.92260    1.000
    C61      C        0.54930    0.78240    0.93190    1.000
    C62      C        0.54990    0.77030    0.98840    1.000
    C63      C        0.39030    0.62920    0.97790    1.000
    C64      C        0.42220    0.63060    0.71490    1.000
    C65      C        0.16010    0.91600    0.71580    1.000
    C66      C        0.48170    0.56440    0.68740    1.000
    C67      C        0.43610    0.48250    0.71260    1.000
    C68      C        0.49290    0.41540    0.68160    1.000
    C69      C        0.47140    0.48970    0.60500    1.000
    C70      C        0.41480    0.55850    0.63340    1.000
    C71      C        0.32260    0.34600    0.61230    1.000
    C72      C        0.11000    0.99210    0.70140    1.000
    C73      C        0.08080    0.99690    0.64420    1.000
    C74      C        0.01690    0.07630    0.63040    1.000
    C75      C        0.17640    0.21890    0.62150    1.000
    C76      C        0.94960    0.28290    0.34770    1.000
    C77      C        0.17030    0.14750    0.70300    1.000
    C78      C        0.23120    0.06980    0.71860    1.000
    C79      C        0.16230    0.28780    0.55020    1.000
    C80      C        0.95820    0.29920    0.40460    1.000
    C81      C        0.11520    0.35870    0.42260    1.000
    C82      C        0.95070    0.21760    0.43190    1.000
    C83      C        0.95010    0.22970    0.48840    1.000
    C84      C        0.10970    0.37080    0.47790    1.000
    N1       N        0.92560    0.41300    0.86840    1.000
    N2       N        0.78130    0.28240    0.85740    1.000
    N3       N        0.76790    0.35280    0.93350    1.000
    N4       N        0.63320    0.14870    0.85050    1.000
    N5       N        0.61090    0.21750    0.92390    1.000
    N6       N        0.59230    0.29190    0.99660    1.000
    N7       N        0.57440    0.58700    0.36840    1.000
    N8       N        0.71870    0.71760    0.35740    1.000
    N9       N        0.73210    0.64720    0.43350    1.000
    N10      N        0.86680    0.85130    0.35050    1.000
    N11      N        0.88910    0.78250    0.42390    1.000
    N12      N        0.90770    0.70810    0.49660    1.000
    N13      N        0.07440    0.58700    0.13160    1.000
    N14      N        0.21870    0.71760    0.14260    1.000
    N15      N        0.23210    0.64720    0.06650    1.000
    N16      N        0.36680    0.85130    0.14950    1.000
    N17      N        0.38910    0.78250    0.07610    1.000
    N18      N        0.40770    0.70810    0.00340    1.000
    N19      N        0.42560    0.41300    0.63160    1.000
    N20      N        0.28130    0.28240    0.64260    1.000
    N21      N        0.26790    0.35280    0.56650    1.000
    N22      N        0.13320    0.14870    0.64950    1.000
    N23      N        0.11090    0.21750    0.57610    1.000
    N24      N        0.09230    0.29190    0.50340    1.000
    O1       O        0.77900    0.61910    0.76500    1.000
    O2       O        0.01270    0.70460    0.78450    1.000
    O3       O        0.81050    0.90970    0.78770    1.000
    O4       O        0.58720    0.29120    0.17550    1.000
    O5       O        0.55750    0.85560    0.76630    1.000
    O6       O        0.30900    0.26000    0.17080    1.000
    O7       O        0.72100    0.38090    0.26500    1.000
    O8       O        0.48730    0.29540    0.28450    1.000
    O9       O        0.68950    0.09030    0.28770    1.000
    O10      O        0.91280    0.70880    0.67550    1.000
    O11      O        0.94250    0.14440    0.26630    1.000
    O12      O        0.19100    0.74000    0.67080    1.000
    O13      O        0.22100    0.38090    0.23500    1.000
    O14      O        0.98730    0.29540    0.21550    1.000
    O15      O        0.18950    0.09030    0.21230    1.000
    O16      O        0.41280    0.70880    0.82450    1.000
    O17      O        0.44250    0.14440    0.23370    1.000
    O18      O        0.69100    0.74000    0.82920    1.000
    O19      O        0.27900    0.61910    0.73500    1.000
    O20      O        0.51270    0.70460    0.71550    1.000
    O21      O        0.31050    0.90970    0.71230    1.000
    O22      O        0.08720    0.29120    0.32450    1.000
    O23      O        0.05750    0.85560    0.73370    1.000
    O24      O        0.80900    0.26000    0.32920    1.000
