# CIF file generated by openbabel 3.1.0, see https://openbabel.org
data_I
_chemical_name_common 'image0'
_cell_length_a 11.66
_cell_length_b 12.245
_cell_length_c 13.568
_cell_angle_alpha 64.88
_cell_angle_beta 68.25
_cell_angle_gamma 88.14
_space_group_name_H-M_alt 'P 1'
_space_group_name_Hall 'P 1'
loop_
    _symmetry_equiv_pos_as_xyz
    x,y,z
loop_
    _atom_site_label
    _atom_site_type_symbol
    _atom_site_fract_x
    _atom_site_fract_y
    _atom_site_fract_z
    _atom_site_occupancy
    Eu1      Eu       0.07117    0.17060    0.17231    1.000
    O1       O        0.21000    0.19360    0.97990    1.000
    O2       O        0.02810    0.97010    0.18630    1.000
    O3       O        0.93430    0.15730    0.05590    1.000
    O4       O        0.94070    0.87130    0.62860    1.000
    O5       O        0.76600    0.94450    0.79170    1.000
    O6       O        0.00130    0.69960    0.72340    1.000
    O7       O        0.97670    0.33130    0.05490    1.000
    O8       O        0.76280    0.67640    0.90240    1.000
    O9       O        0.95900    0.81110    0.18040    1.000
    O10      O        0.21480    0.04650    0.92490    1.000
    O11      O        0.64340    0.67230    0.80860    1.000
    C1       C        0.99320    0.85600    0.23370    1.000
    C2       C        0.99380    0.77360    0.35180    1.000
    C3       C        0.71080    0.62300    0.86550    1.000
    C4       C        0.26770    0.12640    0.93560    1.000
    C5       C        0.40810    0.13870    0.89330    1.000
    C6       C        0.46710    0.05170    0.85800    1.000
    H1       H        0.42150    0.99590    0.85160    1.000
    C7       C        0.59170    0.04950    0.83320    1.000
    C8       C        0.66000    0.13310    0.84180    1.000
    H2       H        0.74520    0.13200    0.82230    1.000
    C9       C        0.60390    0.21930    0.87910    1.000
    C10      C        0.47540    0.22120    0.90330    1.000
    H3       H        0.43570    0.27880    0.92620    1.000
    C11      C        0.97660    0.77070    0.63640    1.000
    C12      C        0.92110    0.26860    0.02920    1.000
    C13      C        0.65330    0.94810    0.80870    1.000
    C14      C        0.99020    0.81560    0.43300    1.000
    H4       H        0.98930    0.89770    0.41500    1.000
    O12      O        0.58130    0.86960    0.80890    1.000
    C15      C        0.99610    0.65020    0.37980    1.000
    H5       H        0.99680    0.62400    0.32450    1.000
    C16      C        0.99730    0.56520    0.48650    1.000
    C17      C        0.99170    0.60880    0.56790    1.000
    H6       H        0.99050    0.55430    0.64140    1.000
    C18      C        0.98800    0.73080    0.54240    1.000
    C19      C        0.81620    0.44380    0.94010    1.000
    H7       H        0.86340    0.49240    0.95280    1.000
    C20      C        0.83310    0.32310    0.96980    1.000
    C21      C        0.76350    0.25110    0.94880    1.000
    H8       H        0.77460    0.17000    0.96850    1.000
    C22      C        0.67700    0.29960    0.89840    1.000
    C23      C        0.65900    0.42150    0.87120    1.000
    H9       H        0.60030    0.45410    0.83980    1.000
    C24      C        0.72940    0.49320    0.89160    1.000
    Eu2      Eu       0.92883    0.82940    0.82769    1.000
    O13      O        0.79000    0.80640    0.02010    1.000
    O14      O        0.97190    0.02990    0.81370    1.000
    O15      O        0.06570    0.84270    0.94410    1.000
    O16      O        0.05930    0.12870    0.37140    1.000
    O17      O        0.23400    0.05550    0.20830    1.000
    O18      O        0.99870    0.30040    0.27660    1.000
    O19      O        0.02330    0.66870    0.94510    1.000
    O20      O        0.23720    0.32360    0.09760    1.000
    O21      O        0.04100    0.18890    0.81960    1.000
    O22      O        0.78520    0.95350    0.07510    1.000
    O23      O        0.35660    0.32770    0.19140    1.000
    C25      C        0.00680    0.14400    0.76630    1.000
    C26      C        0.00620    0.22640    0.64820    1.000
    C27      C        0.28920    0.37700    0.13450    1.000
    C28      C        0.73230    0.87360    0.06440    1.000
    C29      C        0.59190    0.86130    0.10670    1.000
    C30      C        0.53290    0.94830    0.14200    1.000
    H10      H        0.57850    0.00410    0.14840    1.000
    C31      C        0.40830    0.95050    0.16680    1.000
    C32      C        0.34000    0.86690    0.15820    1.000
    H11      H        0.25480    0.86800    0.17770    1.000
    C33      C        0.39610    0.78070    0.12090    1.000
    C34      C        0.52460    0.77880    0.09670    1.000
    H12      H        0.56430    0.72120    0.07380    1.000
    C35      C        0.02340    0.22930    0.36360    1.000
    C36      C        0.07890    0.73140    0.97080    1.000
    C37      C        0.34670    0.05190    0.19130    1.000
    C38      C        0.00980    0.18440    0.56700    1.000
    H13      H        0.01070    0.10230    0.58500    1.000
    O24      O        0.41870    0.13040    0.19110    1.000
    C39      C        0.00390    0.34980    0.62020    1.000
    H14      H        0.00320    0.37600    0.67550    1.000
    C40      C        0.00270    0.43480    0.51350    1.000
    C41      C        0.00830    0.39120    0.43210    1.000
    H15      H        0.00950    0.44570    0.35860    1.000
    C42      C        0.01200    0.26920    0.45760    1.000
    C43      C        0.18380    0.55620    0.05990    1.000
    H16      H        0.13660    0.50760    0.04720    1.000
    C44      C        0.16690    0.67690    0.03020    1.000
    C45      C        0.23650    0.74890    0.05120    1.000
    H17      H        0.22540    0.83000    0.03150    1.000
    C46      C        0.32300    0.70040    0.10160    1.000
    C47      C        0.34100    0.57850    0.12880    1.000
    H18      H        0.39970    0.54590    0.16020    1.000
    C48      C        0.27060    0.50680    0.10840    1.000
    Eu3      Eu       0.00000    0.00000    0.00000    1.000
