# CIF file generated by openbabel 3.1.0, see https://openbabel.org
data_I
_chemical_name_common 'image0'
_cell_length_a 18.675
_cell_length_b 10.22
_cell_length_c 13.419
_cell_angle_alpha 90
_cell_angle_beta 98.29
_cell_angle_gamma 90
_space_group_name_H-M_alt 'P 1'
_space_group_name_Hall 'P 1'
loop_
    _symmetry_equiv_pos_as_xyz
    x,y,z
loop_
    _atom_site_label
    _atom_site_type_symbol
    _atom_site_fract_x
    _atom_site_fract_y
    _atom_site_fract_z
    _atom_site_occupancy
    In1      In       0.77422    0.50366    0.97135    1.000
    O1       O        0.99870    0.98290    0.15810    1.000
    O2       O        0.85111    0.65810    0.96540    1.000
    O3       O        0.18633    0.86860    0.95440    1.000
    O4       O        0.80404    0.84270    0.06540    1.000
    O5       O        0.90310    0.07980    0.21740    1.000
    H1       H        0.90760    0.11630    0.16430    1.000
    O6       O        0.75120    0.28160    0.72090    1.000
    H2       H        0.73360    0.25150    0.66620    1.000
    O7       O        0.78190    0.48750    0.81470    1.000
    O8       O        0.90718    0.87860    0.96480    1.000
    O9       O        0.14554    0.64210    0.99690    1.000
    O10      O        0.06360    0.82880    0.00310    1.000
    O11      O        0.78740    0.47830    0.63130    1.000
    P1       P        0.86904    0.78306    0.02594    1.000
    P2       P        0.14217    0.78718    0.01941    1.000
    P3       P        0.96408    0.97380    0.24192    1.000
    P4       P        0.75009    0.43187    0.71576    1.000
    H3       H        0.68000    0.43700    0.71700    1.000
    H4       H        0.17000    0.80600    0.11700    1.000
    H5       H        0.91200    0.75100    0.11000    1.000
    H6       H        0.92800    0.85900    0.25000    1.000
    In2      In       0.27422    0.00366    0.97135    1.000
    O12      O        0.49870    0.48290    0.15810    1.000
    O13      O        0.35111    0.15810    0.96540    1.000
    O14      O        0.68633    0.36860    0.95440    1.000
    O15      O        0.30404    0.34270    0.06540    1.000
    O16      O        0.40310    0.57980    0.21740    1.000
    H7       H        0.40760    0.61630    0.16430    1.000
    O17      O        0.25120    0.78160    0.72090    1.000
    H8       H        0.23360    0.75150    0.66620    1.000
    O18      O        0.28190    0.98750    0.81470    1.000
    O19      O        0.40718    0.37860    0.96480    1.000
    O20      O        0.64554    0.14210    0.99690    1.000
    O21      O        0.56360    0.32880    0.00310    1.000
    O22      O        0.28740    0.97830    0.63130    1.000
    P5       P        0.36904    0.28306    0.02594    1.000
    P6       P        0.64217    0.28718    0.01941    1.000
    P7       P        0.46408    0.47380    0.24192    1.000
    P8       P        0.25009    0.93187    0.71576    1.000
    H9       H        0.18000    0.93700    0.71700    1.000
    H10      H        0.67000    0.30600    0.11700    1.000
    H11      H        0.41200    0.25100    0.11000    1.000
    H12      H        0.42800    0.35900    0.25000    1.000
    In3      In       0.22578    0.50366    0.52865    1.000
    O23      O        0.00130    0.98290    0.34190    1.000
    O24      O        0.14889    0.65810    0.53460    1.000
    O25      O        0.81367    0.86860    0.54560    1.000
    O26      O        0.19596    0.84270    0.43460    1.000
    O27      O        0.09690    0.07980    0.28260    1.000
    H13      H        0.09240    0.11630    0.33570    1.000
    O28      O        0.24880    0.28160    0.77910    1.000
    H14      H        0.26640    0.25150    0.83380    1.000
    O29      O        0.21810    0.48750    0.68530    1.000
    O30      O        0.09282    0.87860    0.53520    1.000
    O31      O        0.85446    0.64210    0.50310    1.000
    O32      O        0.93640    0.82880    0.49690    1.000
    O33      O        0.21260    0.47830    0.86870    1.000
    P9       P        0.13096    0.78306    0.47406    1.000
    P10      P        0.85783    0.78718    0.48059    1.000
    P11      P        0.03592    0.97380    0.25808    1.000
    P12      P        0.24991    0.43187    0.78424    1.000
    H15      H        0.32000    0.43700    0.78300    1.000
    H16      H        0.83000    0.80600    0.38300    1.000
    H17      H        0.08800    0.75100    0.39000    1.000
    H18      H        0.07200    0.85900    0.25000    1.000
    In4      In       0.72578    0.00366    0.52865    1.000
    O34      O        0.50130    0.48290    0.34190    1.000
    O35      O        0.64889    0.15810    0.53460    1.000
    O36      O        0.31367    0.36860    0.54560    1.000
    O37      O        0.69596    0.34270    0.43460    1.000
    O38      O        0.59690    0.57980    0.28260    1.000
    H19      H        0.59240    0.61630    0.33570    1.000
    O39      O        0.74880    0.78160    0.77910    1.000
    H20      H        0.76640    0.75150    0.83380    1.000
    O40      O        0.71810    0.98750    0.68530    1.000
    O41      O        0.59282    0.37860    0.53520    1.000
    O42      O        0.35446    0.14210    0.50310    1.000
    O43      O        0.43640    0.32880    0.49690    1.000
    O44      O        0.71260    0.97830    0.86870    1.000
    P13      P        0.63096    0.28306    0.47406    1.000
    P14      P        0.35783    0.28718    0.48059    1.000
    P15      P        0.53592    0.47380    0.25808    1.000
    P16      P        0.74991    0.93187    0.78424    1.000
    H21      H        0.82000    0.93700    0.78300    1.000
    H22      H        0.33000    0.30600    0.38300    1.000
    H23      H        0.58800    0.25100    0.39000    1.000
    H24      H        0.57200    0.35900    0.25000    1.000
    In5      In       0.22578    0.49634    0.02865    1.000
    O45      O        0.00130    0.01710    0.84190    1.000
    O46      O        0.14889    0.34190    0.03460    1.000
    O47      O        0.81367    0.13140    0.04560    1.000
    O48      O        0.19596    0.15730    0.93460    1.000
    O49      O        0.09690    0.92020    0.78260    1.000
    H25      H        0.09240    0.88370    0.83570    1.000
    O50      O        0.24880    0.71840    0.27910    1.000
    H26      H        0.26640    0.74850    0.33380    1.000
    O51      O        0.21810    0.51250    0.18530    1.000
    O52      O        0.09282    0.12140    0.03520    1.000
    O53      O        0.85446    0.35790    0.00310    1.000
    O54      O        0.93640    0.17120    0.99690    1.000
    O55      O        0.21260    0.52170    0.36870    1.000
    P17      P        0.13096    0.21694    0.97406    1.000
    P18      P        0.85783    0.21282    0.98059    1.000
    P19      P        0.03592    0.02620    0.75808    1.000
    P20      P        0.24991    0.56813    0.28424    1.000
    H27      H        0.32000    0.56300    0.28300    1.000
    H28      H        0.83000    0.19400    0.88300    1.000
    H29      H        0.08800    0.24900    0.89000    1.000
    H30      H        0.07200    0.14100    0.75000    1.000
    In6      In       0.72578    0.99634    0.02865    1.000
    O56      O        0.50130    0.51710    0.84190    1.000
    O57      O        0.64889    0.84190    0.03460    1.000
    O58      O        0.31367    0.63140    0.04560    1.000
    O59      O        0.69596    0.65730    0.93460    1.000
    O60      O        0.59690    0.42020    0.78260    1.000
    H31      H        0.59240    0.38370    0.83570    1.000
    O61      O        0.74880    0.21840    0.27910    1.000
    H32      H        0.76640    0.24850    0.33380    1.000
    O62      O        0.71810    0.01250    0.18530    1.000
    O63      O        0.59282    0.62140    0.03520    1.000
    O64      O        0.35446    0.85790    0.00310    1.000
    O65      O        0.43640    0.67120    0.99690    1.000
    O66      O        0.71260    0.02170    0.36870    1.000
    P21      P        0.63096    0.71694    0.97406    1.000
    P22      P        0.35783    0.71282    0.98059    1.000
    P23      P        0.53592    0.52620    0.75808    1.000
    P24      P        0.74991    0.06813    0.28424    1.000
    H33      H        0.82000    0.06300    0.28300    1.000
    H34      H        0.33000    0.69400    0.88300    1.000
    H35      H        0.58800    0.74900    0.89000    1.000
    H36      H        0.57200    0.64100    0.75000    1.000
    In7      In       0.77422    0.49634    0.47135    1.000
    O67      O        0.99870    0.01710    0.65810    1.000
    O68      O        0.85111    0.34190    0.46540    1.000
    O69      O        0.18633    0.13140    0.45440    1.000
    O70      O        0.80404    0.15730    0.56540    1.000
    O71      O        0.90310    0.92020    0.71740    1.000
    H37      H        0.90760    0.88370    0.66430    1.000
    O72      O        0.75120    0.71840    0.22090    1.000
    H38      H        0.73360    0.74850    0.16620    1.000
    O73      O        0.78190    0.51250    0.31470    1.000
    O74      O        0.90718    0.12140    0.46480    1.000
    O75      O        0.14554    0.35790    0.49690    1.000
    O76      O        0.06360    0.17120    0.50310    1.000
    O77      O        0.78740    0.52170    0.13130    1.000
    P25      P        0.86904    0.21694    0.52594    1.000
    P26      P        0.14217    0.21282    0.51941    1.000
    P27      P        0.96408    0.02620    0.74192    1.000
    P28      P        0.75009    0.56813    0.21576    1.000
    H39      H        0.68000    0.56300    0.21700    1.000
    H40      H        0.17000    0.19400    0.61700    1.000
    H41      H        0.91200    0.24900    0.61000    1.000
    H42      H        0.92800    0.14100    0.75000    1.000
    In8      In       0.27422    0.99634    0.47135    1.000
    O78      O        0.49870    0.51710    0.65810    1.000
    O79      O        0.35111    0.84190    0.46540    1.000
    O80      O        0.68633    0.63140    0.45440    1.000
    O81      O        0.30404    0.65730    0.56540    1.000
    O82      O        0.40310    0.42020    0.71740    1.000
    H43      H        0.40760    0.38370    0.66430    1.000
    O83      O        0.25120    0.21840    0.22090    1.000
    H44      H        0.23360    0.24850    0.16620    1.000
    O84      O        0.28190    0.01250    0.31470    1.000
    O85      O        0.40718    0.62140    0.46480    1.000
    O86      O        0.64554    0.85790    0.49690    1.000
    O87      O        0.56360    0.67120    0.50310    1.000
    O88      O        0.28740    0.02170    0.13130    1.000
    P29      P        0.36904    0.71694    0.52594    1.000
    P30      P        0.64217    0.71282    0.51941    1.000
    P31      P        0.46408    0.52620    0.74192    1.000
    P32      P        0.25009    0.06813    0.21576    1.000
    H45      H        0.18000    0.06300    0.21700    1.000
    H46      H        0.67000    0.69400    0.61700    1.000
    H47      H        0.41200    0.74900    0.61000    1.000
    H48      H        0.42800    0.64100    0.75000    1.000
    In9      In       0.00000    0.00000    0.00000    1.000
    In10     In       0.50000    0.50000    0.00000    1.000
    In11     In       0.00000    0.00000    0.50000    1.000
    In12     In       0.50000    0.50000    0.50000    1.000
