# CIF file generated by openbabel 3.1.0, see https://openbabel.org
data_I
_chemical_name_common 'image0'
_cell_length_a 19.5758
_cell_length_b 19.3887
_cell_length_c 27.3461
_cell_angle_alpha 90
_cell_angle_beta 108.49
_cell_angle_gamma 90
_space_group_name_H-M_alt 'P 1'
_space_group_name_Hall 'P 1'
loop_
    _symmetry_equiv_pos_as_xyz
    x,y,z
loop_
    _atom_site_label
    _atom_site_type_symbol
    _atom_site_fract_x
    _atom_site_fract_y
    _atom_site_fract_z
    _atom_site_occupancy
    Co1      Co       0.84814    0.97994    0.08221    1.000
    S1       S        0.02630    0.15370    0.13330    1.000
    S2       S        0.71070    0.77740    0.06150    1.000
    S3       S        0.64260    0.83710    0.06630    1.000
    N1       N        0.77410    0.06800    0.07852    1.000
    N2       N        0.42200    0.39270    0.08598    1.000
    N3       N        0.85110    0.03420    0.66321    1.000
    N4       N        0.84250    0.00270    0.00266    1.000
    N5       N        0.93520    0.04290    0.10540    1.000
    N6       N        0.76260    0.91250    0.05730    1.000
    C1       C        0.78880    0.13220    0.07050    1.000
    H1       H        0.83410    0.14020    0.06740    1.000
    C2       C        0.74610    0.18810    0.06620    1.000
    H2       H        0.76200    0.23160    0.06040    1.000
    C3       C        0.67810    0.17910    0.07060    1.000
    C4       C        0.66010    0.11140    0.07780    1.000
    H3       H        0.61480    0.10150    0.08020    1.000
    C5       C        0.70850    0.05910    0.08160    1.000
    H4       H        0.69440    0.01460    0.08660    1.000
    C6       C        0.62530    0.23790    0.06270    1.000
    C7       C        0.62900    0.29210    0.02540    1.000
    H5       H        0.60060    0.33110    0.02880    1.000
    H6       H        0.61060    0.27420    0.99100    1.000
    H7       H        0.67820    0.30610    0.03220    1.000
    C8       C        0.47950    0.38310    0.12720    1.000
    H8       H        0.48500    0.41150    0.15560    1.000
    C9       C        0.53150    0.33380    0.13050    1.000
    H9       H        0.56990    0.32840    0.16070    1.000
    C10      C        0.52540    0.29230    0.08790    1.000
    C11      C        0.46700    0.30440    0.04500    1.000
    H10      H        0.46100    0.27780    0.01560    1.000
    C12      C        0.41870    0.35350    0.04430    1.000
    H11      H        0.38120    0.36110    0.01390    1.000
    C13      C        0.58140    0.23950    0.09080    1.000
    H12      H        0.58620    0.20430    0.11470    1.000
    C14      C        0.89910    0.00560    0.98730    1.000
    H13      H        0.94420    0.99900    0.01150    1.000
    C15      C        0.89490    0.01800    0.93630    1.000
    H14      H        0.93690    0.01830    0.92730    1.000
    C16      C        0.83030    0.02980    0.89930    1.000
    C17      C        0.77280    0.02570    0.91530    1.000
    H15      H        0.72720    0.03080    0.89140    1.000
    C18      C        0.77870    0.01410    0.96620    1.000
    H16      H        0.73710    0.01410    0.97570    1.000
    C19      C        0.81720    0.05320    0.84540    1.000
    C20      C        0.76460    0.11670    0.81900    1.000
    H17      H        0.77860    0.13470    0.79090    1.000
    H18      H        0.76830    0.15230    0.84410    1.000
    H19      H        0.71580    0.10060    0.80630    1.000
    C21      C        0.88350    0.98970    0.69960    1.000
    H20      H        0.91100    0.95460    0.69210    1.000
    C22      C        0.87760    0.99360    0.74930    1.000
    H21      H        0.90160    0.96060    0.77330    1.000
    C23      C        0.84050    0.04080    0.76410    1.000
    C24      C        0.81440    0.08300    0.67630    1.000
    H22      H        0.79070    0.11570    0.65190    1.000
    C25      C        0.80970    0.08740    0.72660    1.000
    H23      H        0.78420    0.12390    0.73450    1.000
    C26      C        0.83690    0.03790    0.81780    1.000
    H24      H        0.87070    0.00450    0.83380    1.000
    C27      C        0.97300    0.08880    0.11630    1.000
    C28      C        0.71900    0.87040    0.05810    1.000
    Co2      Co       0.34814    0.47994    0.08221    1.000
    S4       S        0.52630    0.65370    0.13330    1.000
    S5       S        0.21070    0.27740    0.06150    1.000
    S6       S        0.14260    0.33710    0.06630    1.000
    N7       N        0.27410    0.56800    0.07852    1.000
    N8       N        0.92200    0.89270    0.08598    1.000
    N9       N        0.35110    0.53420    0.66321    1.000
    N10      N        0.34250    0.50270    0.00266    1.000
    N11      N        0.43520    0.54290    0.10540    1.000
    N12      N        0.26260    0.41250    0.05730    1.000
    C29      C        0.28880    0.63220    0.07050    1.000
    H25      H        0.33410    0.64020    0.06740    1.000
    C30      C        0.24610    0.68810    0.06620    1.000
    H26      H        0.26200    0.73160    0.06040    1.000
    C31      C        0.17810    0.67910    0.07060    1.000
    C32      C        0.16010    0.61140    0.07780    1.000
    H27      H        0.11480    0.60150    0.08020    1.000
    C33      C        0.20850    0.55910    0.08160    1.000
    H28      H        0.19440    0.51460    0.08660    1.000
    C34      C        0.12530    0.73790    0.06270    1.000
    C35      C        0.12900    0.79210    0.02540    1.000
    H29      H        0.10060    0.83110    0.02880    1.000
    H30      H        0.11060    0.77420    0.99100    1.000
    H31      H        0.17820    0.80610    0.03220    1.000
    C36      C        0.97950    0.88310    0.12720    1.000
    H32      H        0.98500    0.91150    0.15560    1.000
    C37      C        0.03150    0.83380    0.13050    1.000
    H33      H        0.06990    0.82840    0.16070    1.000
    C38      C        0.02540    0.79230    0.08790    1.000
    C39      C        0.96700    0.80440    0.04500    1.000
    H34      H        0.96100    0.77780    0.01560    1.000
    C40      C        0.91870    0.85350    0.04430    1.000
    H35      H        0.88120    0.86110    0.01390    1.000
    C41      C        0.08140    0.73950    0.09080    1.000
    H36      H        0.08620    0.70430    0.11470    1.000
    C42      C        0.39910    0.50560    0.98730    1.000
    H37      H        0.44420    0.49900    0.01150    1.000
    C43      C        0.39490    0.51800    0.93630    1.000
    H38      H        0.43690    0.51830    0.92730    1.000
    C44      C        0.33030    0.52980    0.89930    1.000
    C45      C        0.27280    0.52570    0.91530    1.000
    H39      H        0.22720    0.53080    0.89140    1.000
    C46      C        0.27870    0.51410    0.96620    1.000
    H40      H        0.23710    0.51410    0.97570    1.000
    C47      C        0.31720    0.55320    0.84540    1.000
    C48      C        0.26460    0.61670    0.81900    1.000
    H41      H        0.27860    0.63470    0.79090    1.000
    H42      H        0.26830    0.65230    0.84410    1.000
    H43      H        0.21580    0.60060    0.80630    1.000
    C49      C        0.38350    0.48970    0.69960    1.000
    H44      H        0.41100    0.45460    0.69210    1.000
    C50      C        0.37760    0.49360    0.74930    1.000
    H45      H        0.40160    0.46060    0.77330    1.000
    C51      C        0.34050    0.54080    0.76410    1.000
    C52      C        0.31440    0.58300    0.67630    1.000
    H46      H        0.29070    0.61570    0.65190    1.000
    C53      C        0.30970    0.58740    0.72660    1.000
    H47      H        0.28420    0.62390    0.73450    1.000
    C54      C        0.33690    0.53790    0.81780    1.000
    H48      H        0.37070    0.50450    0.83380    1.000
    C55      C        0.47300    0.58880    0.11630    1.000
    C56      C        0.21900    0.37040    0.05810    1.000
    Co3      Co       0.84814    0.02006    0.58221    1.000
    S7       S        0.02630    0.84630    0.63330    1.000
    S8       S        0.71070    0.22260    0.56150    1.000
    S9       S        0.64260    0.16290    0.56630    1.000
    N13      N        0.77410    0.93200    0.57852    1.000
    N14      N        0.42200    0.60730    0.58598    1.000
    N15      N        0.85110    0.96580    0.16321    1.000
    N16      N        0.84250    0.99730    0.50266    1.000
    N17      N        0.93520    0.95710    0.60540    1.000
    N18      N        0.76260    0.08750    0.55730    1.000
    C57      C        0.78880    0.86780    0.57050    1.000
    H49      H        0.83410    0.85980    0.56740    1.000
    C58      C        0.74610    0.81190    0.56620    1.000
    H50      H        0.76200    0.76840    0.56040    1.000
    C59      C        0.67810    0.82090    0.57060    1.000
    C60      C        0.66010    0.88860    0.57780    1.000
    H51      H        0.61480    0.89850    0.58020    1.000
    C61      C        0.70850    0.94090    0.58160    1.000
    H52      H        0.69440    0.98540    0.58660    1.000
    C62      C        0.62530    0.76210    0.56270    1.000
    C63      C        0.62900    0.70790    0.52540    1.000
    H53      H        0.60060    0.66890    0.52880    1.000
    H54      H        0.61060    0.72580    0.49100    1.000
    H55      H        0.67820    0.69390    0.53220    1.000
    C64      C        0.47950    0.61690    0.62720    1.000
    H56      H        0.48500    0.58850    0.65560    1.000
    C65      C        0.53150    0.66620    0.63050    1.000
    H57      H        0.56990    0.67160    0.66070    1.000
    C66      C        0.52540    0.70770    0.58790    1.000
    C67      C        0.46700    0.69560    0.54500    1.000
    H58      H        0.46100    0.72220    0.51560    1.000
    C68      C        0.41870    0.64650    0.54430    1.000
    H59      H        0.38120    0.63890    0.51390    1.000
    C69      C        0.58140    0.76050    0.59080    1.000
    H60      H        0.58620    0.79570    0.61470    1.000
    C70      C        0.89910    0.99440    0.48730    1.000
    H61      H        0.94420    0.00100    0.51150    1.000
    C71      C        0.89490    0.98200    0.43630    1.000
    H62      H        0.93690    0.98170    0.42730    1.000
    C72      C        0.83030    0.97020    0.39930    1.000
    C73      C        0.77280    0.97430    0.41530    1.000
    H63      H        0.72720    0.96920    0.39140    1.000
    C74      C        0.77870    0.98590    0.46620    1.000
    H64      H        0.73710    0.98590    0.47570    1.000
    C75      C        0.81720    0.94680    0.34540    1.000
    C76      C        0.76460    0.88330    0.31900    1.000
    H65      H        0.77860    0.86530    0.29090    1.000
    H66      H        0.76830    0.84770    0.34410    1.000
    H67      H        0.71580    0.89940    0.30630    1.000
    C77      C        0.88350    0.01030    0.19960    1.000
    H68      H        0.91100    0.04540    0.19210    1.000
    C78      C        0.87760    0.00640    0.24930    1.000
    H69      H        0.90160    0.03940    0.27330    1.000
    C79      C        0.84050    0.95920    0.26410    1.000
    C80      C        0.81440    0.91700    0.17630    1.000
    H70      H        0.79070    0.88430    0.15190    1.000
    C81      C        0.80970    0.91260    0.22660    1.000
    H71      H        0.78420    0.87610    0.23450    1.000
    C82      C        0.83690    0.96210    0.31780    1.000
    H72      H        0.87070    0.99550    0.33380    1.000
    C83      C        0.97300    0.91120    0.61630    1.000
    C84      C        0.71900    0.12960    0.55810    1.000
    Co4      Co       0.34814    0.52006    0.58221    1.000
    S10      S        0.52630    0.34630    0.63330    1.000
    S11      S        0.21070    0.72260    0.56150    1.000
    S12      S        0.14260    0.66290    0.56630    1.000
    N19      N        0.27410    0.43200    0.57852    1.000
    N20      N        0.92200    0.10730    0.58598    1.000
    N21      N        0.35110    0.46580    0.16321    1.000
    N22      N        0.34250    0.49730    0.50266    1.000
    N23      N        0.43520    0.45710    0.60540    1.000
    N24      N        0.26260    0.58750    0.55730    1.000
    C85      C        0.28880    0.36780    0.57050    1.000
    H73      H        0.33410    0.35980    0.56740    1.000
    C86      C        0.24610    0.31190    0.56620    1.000
    H74      H        0.26200    0.26840    0.56040    1.000
    C87      C        0.17810    0.32090    0.57060    1.000
    C88      C        0.16010    0.38860    0.57780    1.000
    H75      H        0.11480    0.39850    0.58020    1.000
    C89      C        0.20850    0.44090    0.58160    1.000
    H76      H        0.19440    0.48540    0.58660    1.000
    C90      C        0.12530    0.26210    0.56270    1.000
    C91      C        0.12900    0.20790    0.52540    1.000
    H77      H        0.10060    0.16890    0.52880    1.000
    H78      H        0.11060    0.22580    0.49100    1.000
    H79      H        0.17820    0.19390    0.53220    1.000
    C92      C        0.97950    0.11690    0.62720    1.000
    H80      H        0.98500    0.08850    0.65560    1.000
    C93      C        0.03150    0.16620    0.63050    1.000
    H81      H        0.06990    0.17160    0.66070    1.000
    C94      C        0.02540    0.20770    0.58790    1.000
    C95      C        0.96700    0.19560    0.54500    1.000
    H82      H        0.96100    0.22220    0.51560    1.000
    C96      C        0.91870    0.14650    0.54430    1.000
    H83      H        0.88120    0.13890    0.51390    1.000
    C97      C        0.08140    0.26050    0.59080    1.000
    H84      H        0.08620    0.29570    0.61470    1.000
    C98      C        0.39910    0.49440    0.48730    1.000
    H85      H        0.44420    0.50100    0.51150    1.000
    C99      C        0.39490    0.48200    0.43630    1.000
    H86      H        0.43690    0.48170    0.42730    1.000
    C100     C        0.33030    0.47020    0.39930    1.000
    C101     C        0.27280    0.47430    0.41530    1.000
    H87      H        0.22720    0.46920    0.39140    1.000
    C102     C        0.27870    0.48590    0.46620    1.000
    H88      H        0.23710    0.48590    0.47570    1.000
    C103     C        0.31720    0.44680    0.34540    1.000
    C104     C        0.26460    0.38330    0.31900    1.000
    H89      H        0.27860    0.36530    0.29090    1.000
    H90      H        0.26830    0.34770    0.34410    1.000
    H91      H        0.21580    0.39940    0.30630    1.000
    C105     C        0.38350    0.51030    0.19960    1.000
    H92      H        0.41100    0.54540    0.19210    1.000
    C106     C        0.37760    0.50640    0.24930    1.000
    H93      H        0.40160    0.53940    0.27330    1.000
    C107     C        0.34050    0.45920    0.26410    1.000
    C108     C        0.31440    0.41700    0.17630    1.000
    H94      H        0.29070    0.38430    0.15190    1.000
    C109     C        0.30970    0.41260    0.22660    1.000
    H95      H        0.28420    0.37610    0.23450    1.000
    C110     C        0.33690    0.46210    0.31780    1.000
    H96      H        0.37070    0.49550    0.33380    1.000
    C111     C        0.47300    0.41120    0.61630    1.000
    C112     C        0.21900    0.62960    0.55810    1.000
    Co5      Co       0.15186    0.97994    0.41779    1.000
    S13      S        0.97370    0.15370    0.36670    1.000
    S14      S        0.28930    0.77740    0.43850    1.000
    S15      S        0.35740    0.83710    0.43370    1.000
    N25      N        0.22590    0.06800    0.42148    1.000
    N26      N        0.57800    0.39270    0.41402    1.000
    N27      N        0.14890    0.03420    0.83679    1.000
    N28      N        0.15750    0.00270    0.49734    1.000
    N29      N        0.06480    0.04290    0.39460    1.000
    N30      N        0.23740    0.91250    0.44270    1.000
    C113     C        0.21120    0.13220    0.42950    1.000
    H97      H        0.16590    0.14020    0.43260    1.000
    C114     C        0.25390    0.18810    0.43380    1.000
    H98      H        0.23800    0.23160    0.43960    1.000
    C115     C        0.32190    0.17910    0.42940    1.000
    C116     C        0.33990    0.11140    0.42220    1.000
    H99      H        0.38520    0.10150    0.41980    1.000
    C117     C        0.29150    0.05910    0.41840    1.000
    H100     H        0.30560    0.01460    0.41340    1.000
    C118     C        0.37470    0.23790    0.43730    1.000
    C119     C        0.37100    0.29210    0.47460    1.000
    H101     H        0.39940    0.33110    0.47120    1.000
    H102     H        0.38940    0.27420    0.50900    1.000
    H103     H        0.32180    0.30610    0.46780    1.000
    C120     C        0.52050    0.38310    0.37280    1.000
    H104     H        0.51500    0.41150    0.34440    1.000
    C121     C        0.46850    0.33380    0.36950    1.000
    H105     H        0.43010    0.32840    0.33930    1.000
    C122     C        0.47460    0.29230    0.41210    1.000
    C123     C        0.53300    0.30440    0.45500    1.000
    H106     H        0.53900    0.27780    0.48440    1.000
    C124     C        0.58130    0.35350    0.45570    1.000
    H107     H        0.61880    0.36110    0.48610    1.000
    C125     C        0.41860    0.23950    0.40920    1.000
    H108     H        0.41380    0.20430    0.38530    1.000
    C126     C        0.10090    0.00560    0.51270    1.000
    H109     H        0.05580    0.99900    0.48850    1.000
    C127     C        0.10510    0.01800    0.56370    1.000
    H110     H        0.06310    0.01830    0.57270    1.000
    C128     C        0.16970    0.02980    0.60070    1.000
    C129     C        0.22720    0.02570    0.58470    1.000
    H111     H        0.27280    0.03080    0.60860    1.000
    C130     C        0.22130    0.01410    0.53380    1.000
    H112     H        0.26290    0.01410    0.52430    1.000
    C131     C        0.18280    0.05320    0.65460    1.000
    C132     C        0.23540    0.11670    0.68100    1.000
    H113     H        0.22140    0.13470    0.70910    1.000
    H114     H        0.23170    0.15230    0.65590    1.000
    H115     H        0.28420    0.10060    0.69370    1.000
    C133     C        0.11650    0.98970    0.80040    1.000
    H116     H        0.08900    0.95460    0.80790    1.000
    C134     C        0.12240    0.99360    0.75070    1.000
    H117     H        0.09840    0.96060    0.72670    1.000
    C135     C        0.15950    0.04080    0.73590    1.000
    C136     C        0.18560    0.08300    0.82370    1.000
    H118     H        0.20930    0.11570    0.84810    1.000
    C137     C        0.19030    0.08740    0.77340    1.000
    H119     H        0.21580    0.12390    0.76550    1.000
    C138     C        0.16310    0.03790    0.68220    1.000
    H120     H        0.12930    0.00450    0.66620    1.000
    C139     C        0.02700    0.08880    0.38370    1.000
    C140     C        0.28100    0.87040    0.44190    1.000
    Co6      Co       0.65186    0.47994    0.41779    1.000
    S16      S        0.47370    0.65370    0.36670    1.000
    S17      S        0.78930    0.27740    0.43850    1.000
    S18      S        0.85740    0.33710    0.43370    1.000
    N31      N        0.72590    0.56800    0.42148    1.000
    N32      N        0.07800    0.89270    0.41402    1.000
    N33      N        0.64890    0.53420    0.83679    1.000
    N34      N        0.65750    0.50270    0.49734    1.000
    N35      N        0.56480    0.54290    0.39460    1.000
    N36      N        0.73740    0.41250    0.44270    1.000
    C141     C        0.71120    0.63220    0.42950    1.000
    H121     H        0.66590    0.64020    0.43260    1.000
    C142     C        0.75390    0.68810    0.43380    1.000
    H122     H        0.73800    0.73160    0.43960    1.000
    C143     C        0.82190    0.67910    0.42940    1.000
    C144     C        0.83990    0.61140    0.42220    1.000
    H123     H        0.88520    0.60150    0.41980    1.000
    C145     C        0.79150    0.55910    0.41840    1.000
    H124     H        0.80560    0.51460    0.41340    1.000
    C146     C        0.87470    0.73790    0.43730    1.000
    C147     C        0.87100    0.79210    0.47460    1.000
    H125     H        0.89940    0.83110    0.47120    1.000
    H126     H        0.88940    0.77420    0.50900    1.000
    H127     H        0.82180    0.80610    0.46780    1.000
    C148     C        0.02050    0.88310    0.37280    1.000
    H128     H        0.01500    0.91150    0.34440    1.000
    C149     C        0.96850    0.83380    0.36950    1.000
    H129     H        0.93010    0.82840    0.33930    1.000
    C150     C        0.97460    0.79230    0.41210    1.000
    C151     C        0.03300    0.80440    0.45500    1.000
    H130     H        0.03900    0.77780    0.48440    1.000
    C152     C        0.08130    0.85350    0.45570    1.000
    H131     H        0.11880    0.86110    0.48610    1.000
    C153     C        0.91860    0.73950    0.40920    1.000
    H132     H        0.91380    0.70430    0.38530    1.000
    C154     C        0.60090    0.50560    0.51270    1.000
    H133     H        0.55580    0.49900    0.48850    1.000
    C155     C        0.60510    0.51800    0.56370    1.000
    H134     H        0.56310    0.51830    0.57270    1.000
    C156     C        0.66970    0.52980    0.60070    1.000
    C157     C        0.72720    0.52570    0.58470    1.000
    H135     H        0.77280    0.53080    0.60860    1.000
    C158     C        0.72130    0.51410    0.53380    1.000
    H136     H        0.76290    0.51410    0.52430    1.000
    C159     C        0.68280    0.55320    0.65460    1.000
    C160     C        0.73540    0.61670    0.68100    1.000
    H137     H        0.72140    0.63470    0.70910    1.000
    H138     H        0.73170    0.65230    0.65590    1.000
    H139     H        0.78420    0.60060    0.69370    1.000
    C161     C        0.61650    0.48970    0.80040    1.000
    H140     H        0.58900    0.45460    0.80790    1.000
    C162     C        0.62240    0.49360    0.75070    1.000
    H141     H        0.59840    0.46060    0.72670    1.000
    C163     C        0.65950    0.54080    0.73590    1.000
    C164     C        0.68560    0.58300    0.82370    1.000
    H142     H        0.70930    0.61570    0.84810    1.000
    C165     C        0.69030    0.58740    0.77340    1.000
    H143     H        0.71580    0.62390    0.76550    1.000
    C166     C        0.66310    0.53790    0.68220    1.000
    H144     H        0.62930    0.50450    0.66620    1.000
    C167     C        0.52700    0.58880    0.38370    1.000
    C168     C        0.78100    0.37040    0.44190    1.000
    Co7      Co       0.15186    0.02006    0.91779    1.000
    S19      S        0.97370    0.84630    0.86670    1.000
    S20      S        0.28930    0.22260    0.93850    1.000
    S21      S        0.35740    0.16290    0.93370    1.000
    N37      N        0.22590    0.93200    0.92148    1.000
    N38      N        0.57800    0.60730    0.91402    1.000
    N39      N        0.14890    0.96580    0.33679    1.000
    N40      N        0.15750    0.99730    0.99734    1.000
    N41      N        0.06480    0.95710    0.89460    1.000
    N42      N        0.23740    0.08750    0.94270    1.000
    C169     C        0.21120    0.86780    0.92950    1.000
    H145     H        0.16590    0.85980    0.93260    1.000
    C170     C        0.25390    0.81190    0.93380    1.000
    H146     H        0.23800    0.76840    0.93960    1.000
    C171     C        0.32190    0.82090    0.92940    1.000
    C172     C        0.33990    0.88860    0.92220    1.000
    H147     H        0.38520    0.89850    0.91980    1.000
    C173     C        0.29150    0.94090    0.91840    1.000
    H148     H        0.30560    0.98540    0.91340    1.000
    C174     C        0.37470    0.76210    0.93730    1.000
    C175     C        0.37100    0.70790    0.97460    1.000
    H149     H        0.39940    0.66890    0.97120    1.000
    H150     H        0.38940    0.72580    0.00900    1.000
    H151     H        0.32180    0.69390    0.96780    1.000
    C176     C        0.52050    0.61690    0.87280    1.000
    H152     H        0.51500    0.58850    0.84440    1.000
    C177     C        0.46850    0.66620    0.86950    1.000
    H153     H        0.43010    0.67160    0.83930    1.000
    C178     C        0.47460    0.70770    0.91210    1.000
    C179     C        0.53300    0.69560    0.95500    1.000
    H154     H        0.53900    0.72220    0.98440    1.000
    C180     C        0.58130    0.64650    0.95570    1.000
    H155     H        0.61880    0.63890    0.98610    1.000
    C181     C        0.41860    0.76050    0.90920    1.000
    H156     H        0.41380    0.79570    0.88530    1.000
    C182     C        0.10090    0.99440    0.01270    1.000
    H157     H        0.05580    0.00100    0.98850    1.000
    C183     C        0.10510    0.98200    0.06370    1.000
    H158     H        0.06310    0.98170    0.07270    1.000
    C184     C        0.16970    0.97020    0.10070    1.000
    C185     C        0.22720    0.97430    0.08470    1.000
    H159     H        0.27280    0.96920    0.10860    1.000
    C186     C        0.22130    0.98590    0.03380    1.000
    H160     H        0.26290    0.98590    0.02430    1.000
    C187     C        0.18280    0.94680    0.15460    1.000
    C188     C        0.23540    0.88330    0.18100    1.000
    H161     H        0.22140    0.86530    0.20910    1.000
    H162     H        0.23170    0.84770    0.15590    1.000
    H163     H        0.28420    0.89940    0.19370    1.000
    C189     C        0.11650    0.01030    0.30040    1.000
    H164     H        0.08900    0.04540    0.30790    1.000
    C190     C        0.12240    0.00640    0.25070    1.000
    H165     H        0.09840    0.03940    0.22670    1.000
    C191     C        0.15950    0.95920    0.23590    1.000
    C192     C        0.18560    0.91700    0.32370    1.000
    H166     H        0.20930    0.88430    0.34810    1.000
    C193     C        0.19030    0.91260    0.27340    1.000
    H167     H        0.21580    0.87610    0.26550    1.000
    C194     C        0.16310    0.96210    0.18220    1.000
    H168     H        0.12930    0.99550    0.16620    1.000
    C195     C        0.02700    0.91120    0.88370    1.000
    C196     C        0.28100    0.12960    0.94190    1.000
    Co8      Co       0.65186    0.52006    0.91779    1.000
    S22      S        0.47370    0.34630    0.86670    1.000
    S23      S        0.78930    0.72260    0.93850    1.000
    S24      S        0.85740    0.66290    0.93370    1.000
    N43      N        0.72590    0.43200    0.92148    1.000
    N44      N        0.07800    0.10730    0.91402    1.000
    N45      N        0.64890    0.46580    0.33679    1.000
    N46      N        0.65750    0.49730    0.99734    1.000
    N47      N        0.56480    0.45710    0.89460    1.000
    N48      N        0.73740    0.58750    0.94270    1.000
    C197     C        0.71120    0.36780    0.92950    1.000
    H169     H        0.66590    0.35980    0.93260    1.000
    C198     C        0.75390    0.31190    0.93380    1.000
    H170     H        0.73800    0.26840    0.93960    1.000
    C199     C        0.82190    0.32090    0.92940    1.000
    C200     C        0.83990    0.38860    0.92220    1.000
    H171     H        0.88520    0.39850    0.91980    1.000
    C201     C        0.79150    0.44090    0.91840    1.000
    H172     H        0.80560    0.48540    0.91340    1.000
    C202     C        0.87470    0.26210    0.93730    1.000
    C203     C        0.87100    0.20790    0.97460    1.000
    H173     H        0.89940    0.16890    0.97120    1.000
    H174     H        0.88940    0.22580    0.00900    1.000
    H175     H        0.82180    0.19390    0.96780    1.000
    C204     C        0.02050    0.11690    0.87280    1.000
    H176     H        0.01500    0.08850    0.84440    1.000
    C205     C        0.96850    0.16620    0.86950    1.000
    H177     H        0.93010    0.17160    0.83930    1.000
    C206     C        0.97460    0.20770    0.91210    1.000
    C207     C        0.03300    0.19560    0.95500    1.000
    H178     H        0.03900    0.22220    0.98440    1.000
    C208     C        0.08130    0.14650    0.95570    1.000
    H179     H        0.11880    0.13890    0.98610    1.000
    C209     C        0.91860    0.26050    0.90920    1.000
    H180     H        0.91380    0.29570    0.88530    1.000
    C210     C        0.60090    0.49440    0.01270    1.000
    H181     H        0.55580    0.50100    0.98850    1.000
    C211     C        0.60510    0.48200    0.06370    1.000
    H182     H        0.56310    0.48170    0.07270    1.000
    C212     C        0.66970    0.47020    0.10070    1.000
    C213     C        0.72720    0.47430    0.08470    1.000
    H183     H        0.77280    0.46920    0.10860    1.000
    C214     C        0.72130    0.48590    0.03380    1.000
    H184     H        0.76290    0.48590    0.02430    1.000
    C215     C        0.68280    0.44680    0.15460    1.000
    C216     C        0.73540    0.38330    0.18100    1.000
    H185     H        0.72140    0.36530    0.20910    1.000
    H186     H        0.73170    0.34770    0.15590    1.000
    H187     H        0.78420    0.39940    0.19370    1.000
    C217     C        0.61650    0.51030    0.30040    1.000
    H188     H        0.58900    0.54540    0.30790    1.000
    C218     C        0.62240    0.50640    0.25070    1.000
    H189     H        0.59840    0.53940    0.22670    1.000
    C219     C        0.65950    0.45920    0.23590    1.000
    C220     C        0.68560    0.41700    0.32370    1.000
    H190     H        0.70930    0.38430    0.34810    1.000
    C221     C        0.69030    0.41260    0.27340    1.000
    H191     H        0.71580    0.37610    0.26550    1.000
    C222     C        0.66310    0.46210    0.18220    1.000
    H192     H        0.62930    0.49550    0.16620    1.000
    C223     C        0.52700    0.41120    0.88370    1.000
    C224     C        0.78100    0.62960    0.94190    1.000
