# CIF file generated by openbabel 3.1.0, see https://openbabel.org
data_I
_chemical_name_common 'image0'
_cell_length_a 27.943
_cell_length_b 27.943
_cell_length_c 17.707
_cell_angle_alpha 90
_cell_angle_beta 90
_cell_angle_gamma 120
_space_group_name_H-M_alt 'P 1'
_space_group_name_Hall 'P 1'
loop_
    _symmetry_equiv_pos_as_xyz
    x,y,z
loop_
    _atom_site_label
    _atom_site_type_symbol
    _atom_site_fract_x
    _atom_site_fract_y
    _atom_site_fract_z
    _atom_site_occupancy
    Ga1      Ga       0.88143    0.38769    0.85568    1.000
    O1       O        0.92293    0.44915    0.79610    1.000
    O2       O        0.86026    0.40910    0.70580    1.000
    O3       O        0.90388    0.49299    0.45337    1.000
    O4       O        0.98381    0.56985    0.43021    1.000
    O5       O        0.10677    0.66710    0.64647    1.000
    O6       O        0.09182    0.62371    0.75670    1.000
    O7       O        0.80512    0.35455    0.85929    1.000
    O8       O        0.81433    0.43685    0.86570    1.000
    C1       C        0.94128    0.49381    0.67900    1.000
    C2       C        0.92849    0.49335    0.60240    1.000
    H1       H        0.89630    0.46390    0.58280    1.000
    C3       C        0.96373    0.53670    0.55550    1.000
    C4       C        0.01106    0.58087    0.58550    1.000
    H2       H        0.03410    0.61030    0.55440    1.000
    C5       C        0.02449    0.58194    0.66010    1.000
    C6       C        0.99009    0.53875    0.70730    1.000
    H3       H        0.99930    0.53950    0.75790    1.000
    C7       C        0.90450    0.44700    0.72890    1.000
    C8       C        0.95120    0.53465    0.47310    1.000
    C9       C        0.07700    0.62630    0.69280    1.000
    C10      C        0.72369    0.35800    0.86080    1.000
    C11      C        0.69790    0.38950    0.86000    1.000
    H4       H        0.71950    0.42790    0.85880    1.000
    C12      C        0.78570    0.38670    0.86250    1.000
    Ga2      Ga       0.54810    0.72103    0.18901    1.000
    O9       O        0.58960    0.78248    0.12943    1.000
    O10      O        0.52693    0.74243    0.03913    1.000
    O11      O        0.57055    0.82632    0.78670    1.000
    O12      O        0.65048    0.90318    0.76354    1.000
    O13      O        0.77344    0.00043    0.97980    1.000
    O14      O        0.75849    0.95704    0.09003    1.000
    O15      O        0.47179    0.68788    0.19262    1.000
    O16      O        0.48100    0.77018    0.19903    1.000
    C13      C        0.60795    0.82714    0.01233    1.000
    C14      C        0.59516    0.82668    0.93573    1.000
    H5       H        0.56297    0.79723    0.91613    1.000
    C15      C        0.63040    0.87003    0.88883    1.000
    C16      C        0.67773    0.91420    0.91883    1.000
    H6       H        0.70077    0.94363    0.88773    1.000
    C17      C        0.69116    0.91527    0.99343    1.000
    C18      C        0.65676    0.87208    0.04063    1.000
    H7       H        0.66597    0.87283    0.09123    1.000
    C19      C        0.57117    0.78033    0.06223    1.000
    C20      C        0.61787    0.86798    0.80643    1.000
    C21      C        0.74367    0.95963    0.02613    1.000
    C22      C        0.39036    0.69133    0.19413    1.000
    C23      C        0.36457    0.72283    0.19333    1.000
    H8       H        0.38617    0.76123    0.19213    1.000
    C24      C        0.45237    0.72003    0.19583    1.000
    Ga3      Ga       0.21477    0.05436    0.52235    1.000
    O17      O        0.25626    0.11582    0.46277    1.000
    O18      O        0.19359    0.07577    0.37247    1.000
    O19      O        0.23721    0.15966    0.12004    1.000
    O20      O        0.31714    0.23652    0.09688    1.000
    O21      O        0.44010    0.33377    0.31314    1.000
    O22      O        0.42515    0.29038    0.42337    1.000
    O23      O        0.13845    0.02122    0.52596    1.000
    O24      O        0.14766    0.10352    0.53237    1.000
    C25      C        0.27461    0.16048    0.34567    1.000
    C26      C        0.26182    0.16002    0.26907    1.000
    H9       H        0.22963    0.13057    0.24947    1.000
    C27      C        0.29706    0.20337    0.22217    1.000
    C28      C        0.34439    0.24754    0.25217    1.000
    H10      H        0.36743    0.27697    0.22107    1.000
    C29      C        0.35782    0.24861    0.32677    1.000
    C30      C        0.32342    0.20542    0.37397    1.000
    H11      H        0.33263    0.20617    0.42457    1.000
    C31      C        0.23783    0.11367    0.39557    1.000
    C32      C        0.28453    0.20132    0.13977    1.000
    C33      C        0.41033    0.29297    0.35947    1.000
    C34      C        0.05702    0.02467    0.52747    1.000
    C35      C        0.03123    0.05617    0.52667    1.000
    H12      H        0.05283    0.09457    0.52547    1.000
    C36      C        0.11903    0.05337    0.52917    1.000
    Ga4      Ga       0.61231    0.49374    0.85568    1.000
    O25      O        0.55085    0.47378    0.79610    1.000
    O26      O        0.59090    0.45116    0.70580    1.000
    O27      O        0.50701    0.41089    0.45337    1.000
    O28      O        0.43015    0.41396    0.43021    1.000
    O29      O        0.33290    0.43967    0.64647    1.000
    O30      O        0.37629    0.46811    0.75670    1.000
    O31      O        0.64545    0.45057    0.85929    1.000
    O32      O        0.56315    0.37748    0.86570    1.000
    C37      C        0.50619    0.44747    0.67900    1.000
    C38      C        0.50665    0.43514    0.60240    1.000
    H13      H        0.53610    0.43240    0.58280    1.000
    C39      C        0.46330    0.42703    0.55550    1.000
    C40      C        0.41913    0.43019    0.58550    1.000
    H14      H        0.38970    0.42380    0.55440    1.000
    C41      C        0.41806    0.44255    0.66010    1.000
    C42      C        0.46125    0.45134    0.70730    1.000
    H15      H        0.46050    0.45980    0.75790    1.000
    C43      C        0.55300    0.45750    0.72890    1.000
    C44      C        0.46535    0.41655    0.47310    1.000
    C45      C        0.37370    0.45070    0.69280    1.000
    C46      C        0.64200    0.36569    0.86080    1.000
    C47      C        0.61050    0.30840    0.86000    1.000
    H16      H        0.57210    0.29160    0.85880    1.000
    C48      C        0.61330    0.39900    0.86250    1.000
    Ga5      Ga       0.27897    0.82707    0.18901    1.000
    O33      O        0.21752    0.80711    0.12943    1.000
    O34      O        0.25757    0.78449    0.03913    1.000
    O35      O        0.17368    0.74422    0.78670    1.000
    O36      O        0.09682    0.74729    0.76354    1.000
    O37      O        0.99957    0.77300    0.97980    1.000
    O38      O        0.04296    0.80144    0.09003    1.000
    O39      O        0.31212    0.78390    0.19262    1.000
    O40      O        0.22982    0.71081    0.19903    1.000
    C49      C        0.17286    0.78080    0.01233    1.000
    C50      C        0.17332    0.76847    0.93573    1.000
    H17      H        0.20277    0.76573    0.91613    1.000
    C51      C        0.12997    0.76036    0.88883    1.000
    C52      C        0.08580    0.76352    0.91883    1.000
    H18      H        0.05637    0.75713    0.88773    1.000
    C53      C        0.08473    0.77588    0.99343    1.000
    C54      C        0.12792    0.78467    0.04063    1.000
    H19      H        0.12717    0.79313    0.09123    1.000
    C55      C        0.21967    0.79083    0.06223    1.000
    C56      C        0.13202    0.74988    0.80643    1.000
    C57      C        0.04037    0.78403    0.02613    1.000
    C58      C        0.30867    0.69902    0.19413    1.000
    C59      C        0.27717    0.64173    0.19333    1.000
    H20      H        0.23877    0.62493    0.19213    1.000
    C60      C        0.27997    0.73233    0.19583    1.000
    Ga6      Ga       0.94564    0.16041    0.52235    1.000
    O41      O        0.88418    0.14045    0.46277    1.000
    O42      O        0.92423    0.11783    0.37247    1.000
    O43      O        0.84034    0.07756    0.12004    1.000
    O44      O        0.76348    0.08063    0.09688    1.000
    O45      O        0.66623    0.10634    0.31314    1.000
    O46      O        0.70962    0.13478    0.42337    1.000
    O47      O        0.97878    0.11724    0.52596    1.000
    O48      O        0.89648    0.04415    0.53237    1.000
    C61      C        0.83952    0.11414    0.34567    1.000
    C62      C        0.83998    0.10181    0.26907    1.000
    H21      H        0.86943    0.09907    0.24947    1.000
    C63      C        0.79663    0.09370    0.22217    1.000
    C64      C        0.75246    0.09686    0.25217    1.000
    H22      H        0.72303    0.09047    0.22107    1.000
    C65      C        0.75139    0.10922    0.32677    1.000
    C66      C        0.79458    0.11801    0.37397    1.000
    H23      H        0.79383    0.12647    0.42457    1.000
    C67      C        0.88633    0.12417    0.39557    1.000
    C68      C        0.79868    0.08322    0.13977    1.000
    C69      C        0.70703    0.11737    0.35947    1.000
    C70      C        0.97533    0.03236    0.52747    1.000
    C71      C        0.94383    0.97507    0.52667    1.000
    H24      H        0.90543    0.95827    0.52547    1.000
    C72      C        0.94663    0.06567    0.52917    1.000
    Ga7      Ga       0.50626    0.11857    0.85568    1.000
    O49      O        0.52622    0.07707    0.79610    1.000
    O50      O        0.54884    0.13974    0.70580    1.000
    O51      O        0.58911    0.09612    0.45337    1.000
    O52      O        0.58604    0.01619    0.43021    1.000
    O53      O        0.56033    0.89323    0.64647    1.000
    O54      O        0.53189    0.90818    0.75670    1.000
    O55      O        0.54943    0.19488    0.85929    1.000
    O56      O        0.62252    0.18567    0.86570    1.000
    C73      C        0.55253    0.05872    0.67900    1.000
    C74      C        0.56486    0.07151    0.60240    1.000
    H25      H        0.56760    0.10370    0.58280    1.000
    C75      C        0.57297    0.03627    0.55550    1.000
    C76      C        0.56981    0.98894    0.58550    1.000
    H26      H        0.57620    0.96590    0.55440    1.000
    C77      C        0.55745    0.97551    0.66010    1.000
    C78      C        0.54866    0.00991    0.70730    1.000
    H27      H        0.54020    0.00070    0.75790    1.000
    C79      C        0.54250    0.09550    0.72890    1.000
    C80      C        0.58345    0.04880    0.47310    1.000
    C81      C        0.54930    0.92300    0.69280    1.000
    C82      C        0.63431    0.27631    0.86080    1.000
    C83      C        0.69160    0.30210    0.86000    1.000
    H28      H        0.70840    0.28050    0.85880    1.000
    C84      C        0.60100    0.21430    0.86250    1.000
    Ga8      Ga       0.17293    0.45190    0.18901    1.000
    O57      O        0.19289    0.41040    0.12943    1.000
    O58      O        0.21551    0.47307    0.03913    1.000
    O59      O        0.25578    0.42945    0.78670    1.000
    O60      O        0.25271    0.34952    0.76354    1.000
    O61      O        0.22700    0.22656    0.97980    1.000
    O62      O        0.19856    0.24151    0.09003    1.000
    O63      O        0.21610    0.52821    0.19262    1.000
    O64      O        0.28919    0.51900    0.19903    1.000
    C85      C        0.21920    0.39205    0.01233    1.000
    C86      C        0.23153    0.40484    0.93573    1.000
    H29      H        0.23427    0.43703    0.91613    1.000
    C87      C        0.23964    0.36960    0.88883    1.000
    C88      C        0.23648    0.32227    0.91883    1.000
    H30      H        0.24287    0.29923    0.88773    1.000
    C89      C        0.22412    0.30884    0.99343    1.000
    C90      C        0.21533    0.34324    0.04063    1.000
    H31      H        0.20687    0.33403    0.09123    1.000
    C91      C        0.20917    0.42883    0.06223    1.000
    C92      C        0.25012    0.38213    0.80643    1.000
    C93      C        0.21597    0.25633    0.02613    1.000
    C94      C        0.30098    0.60964    0.19413    1.000
    C95      C        0.35827    0.63543    0.19333    1.000
    H32      H        0.37507    0.61383    0.19213    1.000
    C96      C        0.26767    0.54763    0.19583    1.000
    Ga9      Ga       0.83959    0.78523    0.52235    1.000
    O65      O        0.85955    0.74374    0.46277    1.000
    O66      O        0.88217    0.80641    0.37247    1.000
    O67      O        0.92244    0.76279    0.12004    1.000
    O68      O        0.91937    0.68286    0.09688    1.000
    O69      O        0.89366    0.55990    0.31314    1.000
    O70      O        0.86522    0.57485    0.42337    1.000
    O71      O        0.88276    0.86155    0.52596    1.000
    O72      O        0.95585    0.85234    0.53237    1.000
    C97      C        0.88586    0.72539    0.34567    1.000
    C98      C        0.89819    0.73818    0.26907    1.000
    H33      H        0.90093    0.77037    0.24947    1.000
    C99      C        0.90630    0.70294    0.22217    1.000
    C100     C        0.90314    0.65561    0.25217    1.000
    H34      H        0.90953    0.63257    0.22107    1.000
    C101     C        0.89078    0.64218    0.32677    1.000
    C102     C        0.88199    0.67658    0.37397    1.000
    H35      H        0.87353    0.66737    0.42457    1.000
    C103     C        0.87583    0.76217    0.39557    1.000
    C104     C        0.91678    0.71547    0.13977    1.000
    C105     C        0.88263    0.58967    0.35947    1.000
    C106     C        0.96764    0.94298    0.52747    1.000
    C107     C        0.02493    0.96877    0.52667    1.000
    H36      H        0.04173    0.94717    0.52547    1.000
    C108     C        0.93433    0.88097    0.52917    1.000
    Ga10     Ga       0.61231    0.11857    0.35568    1.000
    O73      O        0.55085    0.07707    0.29610    1.000
    O74      O        0.59090    0.13974    0.20580    1.000
    O75      O        0.50701    0.09612    0.95337    1.000
    O76      O        0.43015    0.01619    0.93021    1.000
    O77      O        0.33290    0.89323    0.14647    1.000
    O78      O        0.37629    0.90818    0.25670    1.000
    O79      O        0.64545    0.19488    0.35929    1.000
    O80      O        0.56315    0.18567    0.36570    1.000
    C109     C        0.50619    0.05872    0.17900    1.000
    C110     C        0.50665    0.07151    0.10240    1.000
    H37      H        0.53610    0.10370    0.08280    1.000
    C111     C        0.46330    0.03627    0.05550    1.000
    C112     C        0.41913    0.98894    0.08550    1.000
    H38      H        0.38970    0.96590    0.05440    1.000
    C113     C        0.41806    0.97551    0.16010    1.000
    C114     C        0.46125    0.00991    0.20730    1.000
    H39      H        0.46050    0.00070    0.25790    1.000
    C115     C        0.55300    0.09550    0.22890    1.000
    C116     C        0.46535    0.04880    0.97310    1.000
    C117     C        0.37370    0.92300    0.19280    1.000
    C118     C        0.64200    0.27631    0.36080    1.000
    C119     C        0.61050    0.30210    0.36000    1.000
    H40      H        0.57210    0.28050    0.35880    1.000
    C120     C        0.61330    0.21430    0.36250    1.000
    Ga11     Ga       0.27897    0.45190    0.68901    1.000
    O81      O        0.21752    0.41040    0.62943    1.000
    O82      O        0.25757    0.47307    0.53913    1.000
    O83      O        0.17368    0.42945    0.28670    1.000
    O84      O        0.09682    0.34952    0.26354    1.000
    O85      O        0.99957    0.22656    0.47980    1.000
    O86      O        0.04296    0.24151    0.59003    1.000
    O87      O        0.31212    0.52821    0.69262    1.000
    O88      O        0.22982    0.51900    0.69903    1.000
    C121     C        0.17286    0.39205    0.51233    1.000
    C122     C        0.17332    0.40484    0.43573    1.000
    H41      H        0.20277    0.43703    0.41613    1.000
    C123     C        0.12997    0.36960    0.38883    1.000
    C124     C        0.08580    0.32227    0.41883    1.000
    H42      H        0.05637    0.29923    0.38773    1.000
    C125     C        0.08473    0.30884    0.49343    1.000
    C126     C        0.12792    0.34324    0.54063    1.000
    H43      H        0.12717    0.33403    0.59123    1.000
    C127     C        0.21967    0.42883    0.56223    1.000
    C128     C        0.13202    0.38213    0.30643    1.000
    C129     C        0.04037    0.25633    0.52613    1.000
    C130     C        0.30867    0.60964    0.69413    1.000
    C131     C        0.27717    0.63543    0.69333    1.000
    H44      H        0.23877    0.61383    0.69213    1.000
    C132     C        0.27997    0.54763    0.69583    1.000
    Ga12     Ga       0.94564    0.78523    0.02235    1.000
    O89      O        0.88418    0.74374    0.96277    1.000
    O90      O        0.92423    0.80641    0.87247    1.000
    O91      O        0.84034    0.76279    0.62004    1.000
    O92      O        0.76348    0.68286    0.59688    1.000
    O93      O        0.66623    0.55990    0.81314    1.000
    O94      O        0.70962    0.57485    0.92337    1.000
    O95      O        0.97878    0.86155    0.02596    1.000
    O96      O        0.89648    0.85234    0.03237    1.000
    C133     C        0.83952    0.72539    0.84567    1.000
    C134     C        0.83998    0.73818    0.76907    1.000
    H45      H        0.86943    0.77037    0.74947    1.000
    C135     C        0.79663    0.70294    0.72217    1.000
    C136     C        0.75246    0.65561    0.75217    1.000
    H46      H        0.72303    0.63257    0.72107    1.000
    C137     C        0.75139    0.64218    0.82677    1.000
    C138     C        0.79458    0.67658    0.87397    1.000
    H47      H        0.79383    0.66737    0.92457    1.000
    C139     C        0.88633    0.76217    0.89557    1.000
    C140     C        0.79868    0.71547    0.63977    1.000
    C141     C        0.70703    0.58967    0.85947    1.000
    C142     C        0.97533    0.94298    0.02747    1.000
    C143     C        0.94383    0.96877    0.02667    1.000
    H48      H        0.90543    0.94717    0.02547    1.000
    C144     C        0.94663    0.88097    0.02917    1.000
    Ga13     Ga       0.50626    0.38769    0.35568    1.000
    O97      O        0.52622    0.44915    0.29610    1.000
    O98      O        0.54884    0.40910    0.20580    1.000
    O99      O        0.58911    0.49299    0.95337    1.000
    O100     O        0.58604    0.56985    0.93021    1.000
    O101     O        0.56033    0.66710    0.14647    1.000
    O102     O        0.53189    0.62371    0.25670    1.000
    O103     O        0.54943    0.35455    0.35929    1.000
    O104     O        0.62252    0.43685    0.36570    1.000
    C145     C        0.55253    0.49381    0.17900    1.000
    C146     C        0.56486    0.49335    0.10240    1.000
    H49      H        0.56760    0.46390    0.08280    1.000
    C147     C        0.57297    0.53670    0.05550    1.000
    C148     C        0.56981    0.58087    0.08550    1.000
    H50      H        0.57620    0.61030    0.05440    1.000
    C149     C        0.55745    0.58194    0.16010    1.000
    C150     C        0.54866    0.53875    0.20730    1.000
    H51      H        0.54020    0.53950    0.25790    1.000
    C151     C        0.54250    0.44700    0.22890    1.000
    C152     C        0.58345    0.53465    0.97310    1.000
    C153     C        0.54930    0.62630    0.19280    1.000
    C154     C        0.63431    0.35800    0.36080    1.000
    C155     C        0.69160    0.38950    0.36000    1.000
    H52      H        0.70840    0.42790    0.35880    1.000
    C156     C        0.60100    0.38670    0.36250    1.000
    Ga14     Ga       0.17293    0.72103    0.68901    1.000
    O105     O        0.19289    0.78248    0.62943    1.000
    O106     O        0.21551    0.74243    0.53913    1.000
    O107     O        0.25578    0.82632    0.28670    1.000
    O108     O        0.25271    0.90318    0.26354    1.000
    O109     O        0.22700    0.00043    0.47980    1.000
    O110     O        0.19856    0.95704    0.59003    1.000
    O111     O        0.21610    0.68788    0.69262    1.000
    O112     O        0.28919    0.77018    0.69903    1.000
    C157     C        0.21920    0.82714    0.51233    1.000
    C158     C        0.23153    0.82668    0.43573    1.000
    H53      H        0.23427    0.79723    0.41613    1.000
    C159     C        0.23964    0.87003    0.38883    1.000
    C160     C        0.23648    0.91420    0.41883    1.000
    H54      H        0.24287    0.94363    0.38773    1.000
    C161     C        0.22412    0.91527    0.49343    1.000
    C162     C        0.21533    0.87208    0.54063    1.000
    H55      H        0.20687    0.87283    0.59123    1.000
    C163     C        0.20917    0.78033    0.56223    1.000
    C164     C        0.25012    0.86798    0.30643    1.000
    C165     C        0.21597    0.95963    0.52613    1.000
    C166     C        0.30098    0.69133    0.69413    1.000
    C167     C        0.35827    0.72283    0.69333    1.000
    H56      H        0.37507    0.76123    0.69213    1.000
    C168     C        0.26767    0.72003    0.69583    1.000
    Ga15     Ga       0.83959    0.05436    0.02235    1.000
    O113     O        0.85955    0.11582    0.96277    1.000
    O114     O        0.88217    0.07577    0.87247    1.000
    O115     O        0.92244    0.15966    0.62004    1.000
    O116     O        0.91937    0.23652    0.59688    1.000
    O117     O        0.89366    0.33377    0.81314    1.000
    O118     O        0.86522    0.29038    0.92337    1.000
    O119     O        0.88276    0.02122    0.02596    1.000
    O120     O        0.95585    0.10352    0.03237    1.000
    C169     C        0.88586    0.16048    0.84567    1.000
    C170     C        0.89819    0.16002    0.76907    1.000
    H57      H        0.90093    0.13057    0.74947    1.000
    C171     C        0.90630    0.20337    0.72217    1.000
    C172     C        0.90314    0.24754    0.75217    1.000
    H58      H        0.90953    0.27697    0.72107    1.000
    C173     C        0.89078    0.24861    0.82677    1.000
    C174     C        0.88199    0.20542    0.87397    1.000
    H59      H        0.87353    0.20617    0.92457    1.000
    C175     C        0.87583    0.11367    0.89557    1.000
    C176     C        0.91678    0.20132    0.63977    1.000
    C177     C        0.88263    0.29297    0.85947    1.000
    C178     C        0.96764    0.02467    0.02747    1.000
    C179     C        0.02493    0.05617    0.02667    1.000
    H60      H        0.04173    0.09457    0.02547    1.000
    C180     C        0.93433    0.05337    0.02917    1.000
    Ga16     Ga       0.88143    0.49374    0.35568    1.000
    O121     O        0.92293    0.47378    0.29610    1.000
    O122     O        0.86026    0.45116    0.20580    1.000
    O123     O        0.90388    0.41089    0.95337    1.000
    O124     O        0.98381    0.41396    0.93021    1.000
    O125     O        0.10677    0.43967    0.14647    1.000
    O126     O        0.09182    0.46811    0.25670    1.000
    O127     O        0.80512    0.45057    0.35929    1.000
    O128     O        0.81433    0.37748    0.36570    1.000
    C181     C        0.94128    0.44747    0.17900    1.000
    C182     C        0.92849    0.43514    0.10240    1.000
    H61      H        0.89630    0.43240    0.08280    1.000
    C183     C        0.96373    0.42703    0.05550    1.000
    C184     C        0.01106    0.43019    0.08550    1.000
    H62      H        0.03410    0.42380    0.05440    1.000
    C185     C        0.02449    0.44255    0.16010    1.000
    C186     C        0.99009    0.45134    0.20730    1.000
    H63      H        0.99930    0.45980    0.25790    1.000
    C187     C        0.90450    0.45750    0.22890    1.000
    C188     C        0.95120    0.41655    0.97310    1.000
    C189     C        0.07700    0.45070    0.19280    1.000
    C190     C        0.72369    0.36569    0.36080    1.000
    C191     C        0.69790    0.30840    0.36000    1.000
    H64      H        0.71950    0.29160    0.35880    1.000
    C192     C        0.78570    0.39900    0.36250    1.000
    Ga17     Ga       0.54810    0.82707    0.68901    1.000
    O129     O        0.58960    0.80711    0.62943    1.000
    O130     O        0.52693    0.78449    0.53913    1.000
    O131     O        0.57055    0.74422    0.28670    1.000
    O132     O        0.65048    0.74729    0.26354    1.000
    O133     O        0.77344    0.77300    0.47980    1.000
    O134     O        0.75849    0.80144    0.59003    1.000
    O135     O        0.47179    0.78390    0.69262    1.000
    O136     O        0.48100    0.71081    0.69903    1.000
    C193     C        0.60795    0.78080    0.51233    1.000
    C194     C        0.59516    0.76847    0.43573    1.000
    H65      H        0.56297    0.76573    0.41613    1.000
    C195     C        0.63040    0.76036    0.38883    1.000
    C196     C        0.67773    0.76352    0.41883    1.000
    H66      H        0.70077    0.75713    0.38773    1.000
    C197     C        0.69116    0.77588    0.49343    1.000
    C198     C        0.65676    0.78467    0.54063    1.000
    H67      H        0.66597    0.79313    0.59123    1.000
    C199     C        0.57117    0.79083    0.56223    1.000
    C200     C        0.61787    0.74988    0.30643    1.000
    C201     C        0.74367    0.78403    0.52613    1.000
    C202     C        0.39036    0.69902    0.69413    1.000
    C203     C        0.36457    0.64173    0.69333    1.000
    H68      H        0.38617    0.62493    0.69213    1.000
    C204     C        0.45237    0.73233    0.69583    1.000
    Ga18     Ga       0.21477    0.16041    0.02235    1.000
    O137     O        0.25626    0.14045    0.96277    1.000
    O138     O        0.19359    0.11783    0.87247    1.000
    O139     O        0.23721    0.07756    0.62004    1.000
    O140     O        0.31714    0.08063    0.59688    1.000
    O141     O        0.44010    0.10634    0.81314    1.000
    O142     O        0.42515    0.13478    0.92337    1.000
    O143     O        0.13845    0.11724    0.02596    1.000
    O144     O        0.14766    0.04415    0.03237    1.000
    C205     C        0.27461    0.11414    0.84567    1.000
    C206     C        0.26182    0.10181    0.76907    1.000
    H69      H        0.22963    0.09907    0.74947    1.000
    C207     C        0.29706    0.09370    0.72217    1.000
    C208     C        0.34439    0.09686    0.75217    1.000
    H70      H        0.36743    0.09047    0.72107    1.000
    C209     C        0.35782    0.10922    0.82677    1.000
    C210     C        0.32342    0.11801    0.87397    1.000
    H71      H        0.33263    0.12647    0.92457    1.000
    C211     C        0.23783    0.12417    0.89557    1.000
    C212     C        0.28453    0.08322    0.63977    1.000
    C213     C        0.41033    0.11737    0.85947    1.000
    C214     C        0.05702    0.03236    0.02747    1.000
    C215     C        0.03123    0.97507    0.02667    1.000
    H72      H        0.05283    0.95827    0.02547    1.000
    C216     C        0.11903    0.06567    0.02917    1.000
