# CIF file generated by openbabel 3.1.0, see https://openbabel.org
data_I
_chemical_name_common 'image0'
_cell_length_a 34.7707
_cell_length_b 14.8406
_cell_length_c 31.2152
_cell_angle_alpha 90
_cell_angle_beta 102.601
_cell_angle_gamma 90
_space_group_name_H-M_alt 'P 1'
_space_group_name_Hall 'P 1'
loop_
    _symmetry_equiv_pos_as_xyz
    x,y,z
loop_
    _atom_site_label
    _atom_site_type_symbol
    _atom_site_fract_x
    _atom_site_fract_y
    _atom_site_fract_z
    _atom_site_occupancy
    N1       N        0.12390    0.69920    0.88390    1.000
    C1       C        0.15020    0.65760    0.91450    1.000
    H1       H        0.15320    0.59430    0.91220    1.000
    C2       C        0.17350    0.70180    0.94970    1.000
    H2       H        0.19120    0.66880    0.97160    1.000
    C3       C        0.17100    0.79180    0.95270    1.000
    C4       C        0.14510    0.83800    0.91930    1.000
    H3       H        0.14350    0.90190    0.91900    1.000
    C5       C        0.12180    0.78580    0.88630    1.000
    H4       H        0.10320    0.81610    0.86420    1.000
    C6       C        0.19300    0.84600    0.99060    1.000
    N2       N        0.22240    0.80400    0.01890    1.000
    C7       C        0.23940    0.85820    0.05180    1.000
    N3       N        0.23200    0.94450    0.05840    1.000
    C8       C        0.20360    0.97680    0.02640    1.000
    N4       N        0.18280    0.93220    0.99260    1.000
    N5       N        0.32940    0.72990    0.14830    1.000
    C9       C        0.31730    0.81080    0.15470    1.000
    H5       H        0.32810    0.84010    0.18170    1.000
    C10      C        0.28910    0.85640    0.12360    1.000
    H6       H        0.28250    0.91700    0.12870    1.000
    C11      C        0.27140    0.81440    0.08640    1.000
    C12      C        0.28330    0.72530    0.08010    1.000
    H7       H        0.27100    0.69260    0.05460    1.000
    C13      C        0.31280    0.68610    0.11090    1.000
    H8       H        0.32160    0.62730    0.10590    1.000
    N6       N        0.17910    0.25910    0.02410    1.000
    C14      C        0.15250    0.19920    0.00230    1.000
    H9       H        0.12800    0.22110    0.98580    1.000
    C15      C        0.15950    0.10860    0.00300    1.000
    H10      H        0.14050    0.06850    0.98670    1.000
    C16      C        0.19520    0.07550    0.02820    1.000
    C17      C        0.22180    0.13670    0.05110    1.000
    H11      H        0.24660    0.11750    0.06770    1.000
    C18      C        0.21160    0.22520    0.04920    1.000
    H12      H        0.22910    0.26590    0.06720    1.000
    I1       I        0.02325    0.89880    0.38261    1.000
    I2       I        0.11360    0.00430    0.30870    1.000
    I3       I        0.23300    0.01970    0.53724    1.000
    I4       I        0.12410    0.10410    0.44268    1.000
    I5       I        0.12140    0.41140    0.94260    1.000
    Zn1      Zn       0.16569    0.39465    0.01727    1.000
    I6       I        0.22559    0.49600    0.03810    1.000
    N7       N        0.13430    0.41850    0.06440    1.000
    C19      C        0.14860    0.46610    0.10190    1.000
    H13      H        0.17460    0.48970    0.10650    1.000
    C20      C        0.12770    0.48110    0.13260    1.000
    H14      H        0.13950    0.51130    0.15900    1.000
    C21      C        0.08940    0.45300    0.12610    1.000
    C22      C        0.07340    0.40800    0.08850    1.000
    H15      H        0.04680    0.38760    0.08310    1.000
    C23      C        0.09660    0.39100    0.05760    1.000
    H16      H        0.08530    0.35980    0.03130    1.000
    C24      C        0.06540    0.47050    0.15850    1.000
    N8       N        0.07360    0.54210    0.18510    1.000
    C25      C        0.05150    0.54870    0.21480    1.000
    N9       N        0.02370    0.49230    0.22050    1.000
    C26      C        0.01650    0.42600    0.19070    1.000
    N10      N        0.03580    0.41170    0.15910    1.000
    N11      N        0.92050    0.25400    0.19580    1.000
    C27      C        0.93140    0.27020    0.15820    1.000
    H17      H        0.91660    0.24310    0.13220    1.000
    C28      C        0.96270    0.32370    0.15510    1.000
    H18      H        0.97020    0.33120    0.12790    1.000
    C29      C        0.98330    0.36710    0.19290    1.000
    C30      C        0.97140    0.35010    0.23240    1.000
    H19      H        0.98540    0.37630    0.25900    1.000
    C31      C        0.94010    0.29670    0.23250    1.000
    H20      H        0.93150    0.28860    0.25910    1.000
    I7       I        0.85673    0.19304    0.27067    1.000
    Zn2      Zn       0.87297    0.17090    0.19601    1.000
    I8       I        0.89045    0.02307    0.16529    1.000
    N12      N        0.06630    0.78220    0.29770    1.000
    C32      C        0.03670    0.72350    0.29720    1.000
    H21      H        0.01910    0.73360    0.31610    1.000
    C33      C        0.03140    0.65000    0.27060    1.000
    H22      H        0.00980    0.61090    0.27070    1.000
    C34      C        0.05640    0.63150    0.24370    1.000
    C35      C        0.08680    0.69300    0.24340    1.000
    H23      H        0.10450    0.68400    0.22450    1.000
    C36      C        0.09080    0.76650    0.27070    1.000
    H24      H        0.11160    0.80770    0.27040    1.000
    Zn3      Zn       0.08055    0.88458    0.34414    1.000
    N13      N        0.12070    0.81420    0.39100    1.000
    C37      C        0.11290    0.73170    0.39960    1.000
    H25      H        0.09070    0.70420    0.38100    1.000
    C38      C        0.13420    0.68070    0.43350    1.000
    H26      H        0.12740    0.61970    0.43740    1.000
    C39      C        0.16500    0.72000    0.46110    1.000
    C40      C        0.17360    0.81050    0.45380    1.000
    H27      H        0.19480    0.84040    0.47270    1.000
    C41      C        0.15110    0.85430    0.41940    1.000
    H28      H        0.15670    0.91580    0.41480    1.000
    C42      C        0.18910    0.66900    0.49790    1.000
    N14      N        0.17970    0.58190    0.50200    1.000
    C43      C        0.20310    0.53580    0.53330    1.000
    N15      N        0.23300    0.57230    0.56390    1.000
    C44      C        0.24000    0.65890    0.55740    1.000
    N16      N        0.21930    0.70920    0.52540    1.000
    N17      N        0.18270    0.25210    0.52850    1.000
    C45      C        0.21620    0.28600    0.55220    1.000
    H29      H        0.23590    0.24500    0.56620    1.000
    C46      C        0.22380    0.37600    0.55740    1.000
    H30      H        0.24720    0.39730    0.57640    1.000
    C47      C        0.19510    0.43750    0.53330    1.000
    C48      C        0.16110    0.40310    0.50940    1.000
    H31      H        0.14080    0.44200    0.49460    1.000
    C49      C        0.15630    0.31070    0.50690    1.000
    H32      H        0.13280    0.28750    0.48880    1.000
    N18      N        0.33260    0.79190    0.64540    1.000
    C50      C        0.31450    0.82900    0.60770    1.000
    H33      H        0.32290    0.88690    0.60060    1.000
    C51      C        0.28420    0.78810    0.57840    1.000
    H34      H        0.27210    0.81730    0.55180    1.000
    C52      C        0.27190    0.70410    0.58840    1.000
    C53      C        0.29060    0.66280    0.62780    1.000
    H35      H        0.28290    0.60470    0.63540    1.000
    C54      C        0.32100    0.70940    0.65540    1.000
    H36      H        0.33400    0.68210    0.68210    1.000
    I9       I        0.11257    0.50836    0.80528    1.000
    Zn4      Zn       0.08050    0.62964    0.84012    1.000
    I10      I        0.02539    0.61744    0.88108    1.000
    N19      N        0.06480    0.72950    0.79210    1.000
    C55      C        0.03810    0.79220    0.79650    1.000
    H37      H        0.02250    0.78370    0.81770    1.000
    C56      C        0.03280    0.86990    0.77050    1.000
    H38      H        0.01430    0.91430    0.77460    1.000
    C57      C        0.05450    0.88170    0.73900    1.000
    C58      C        0.08050    0.81240    0.73300    1.000
    H39      H        0.09450    0.81540    0.71020    1.000
    C59      C        0.08490    0.74010    0.76140    1.000
    H40      H        0.10360    0.69510    0.75850    1.000
    C60      C        0.05090    0.96500    0.71250    1.000
    N20      N        0.02390    0.02440    0.71730    1.000
    C61      C        0.01860    0.09160    0.68860    1.000
    N21      N        0.03950    0.10490    0.65850    1.000
    C62      C        0.06730    0.04520    0.65840    1.000
    N22      N        0.07400    0.97230    0.68350    1.000
    N23      N        0.13890    0.08940    0.56530    1.000
    C63      C        0.14650    0.02380    0.59470    1.000
    H41      H        0.16840    0.98570    0.59450    1.000
    C64      C        0.12490    0.00790    0.62490    1.000
    H42      H        0.13260    0.96170    0.64600    1.000
    C65      C        0.09210    0.05770    0.62520    1.000
    C66      C        0.08330    0.12600    0.59330    1.000
    H43      H        0.06000    0.16120    0.59010    1.000
    C67      C        0.10890    0.14000    0.56760    1.000
    H44      H        0.10470    0.19130    0.54920    1.000
    Zn5      Zn       0.17109    0.11504    0.51827    1.000
    N24      N        0.92360    0.26940    0.69100    1.000
    C68      C        0.93730    0.26100    0.65560    1.000
    H45      H        0.92540    0.29470    0.63020    1.000
    C69      C        0.96860    0.20430    0.65370    1.000
    H46      H        0.97780    0.19850    0.62740    1.000
    C70      C        0.98580    0.15770    0.68980    1.000
    C71      C        0.97080    0.16270    0.72710    1.000
    H47      H        0.98060    0.12660    0.75220    1.000
    C72      C        0.94040    0.22380    0.72570    1.000
    H48      H        0.93120    0.23300    0.75180    1.000
    I11      I        0.85919    0.34920    0.76400    1.000
    Zn6      Zn       0.87666    0.35653    0.68993    1.000
    I12      I        0.89173    0.50092    0.65426    1.000
    I13      I        0.11640    0.41170    0.94260    1.000
    I14      I        0.22850    0.48800    0.04090    1.000
    I15      I        0.02560    0.90600    0.37170    1.000
    I16      I        0.12430    0.99600    0.30840    1.000
    I17      I        0.23570    0.03400    0.54370    1.000
    I18      I        0.13050    0.10010    0.44380    1.000
    N25      N        0.62390    0.19920    0.88390    1.000
    C73      C        0.65020    0.15760    0.91450    1.000
    H49      H        0.65320    0.09430    0.91220    1.000
    C74      C        0.67350    0.20180    0.94970    1.000
    H50      H        0.69120    0.16880    0.97160    1.000
    C75      C        0.67100    0.29180    0.95270    1.000
    C76      C        0.64510    0.33800    0.91930    1.000
    H51      H        0.64350    0.40190    0.91900    1.000
    C77      C        0.62180    0.28580    0.88630    1.000
    H52      H        0.60320    0.31610    0.86420    1.000
    C78      C        0.69300    0.34600    0.99060    1.000
    N26      N        0.72240    0.30400    0.01890    1.000
    C79      C        0.73940    0.35820    0.05180    1.000
    N27      N        0.73200    0.44450    0.05840    1.000
    C80      C        0.70360    0.47680    0.02640    1.000
    N28      N        0.68280    0.43220    0.99260    1.000
    N29      N        0.82940    0.22990    0.14830    1.000
    C81      C        0.81730    0.31080    0.15470    1.000
    H53      H        0.82810    0.34010    0.18170    1.000
    C82      C        0.78910    0.35640    0.12360    1.000
    H54      H        0.78250    0.41700    0.12870    1.000
    C83      C        0.77140    0.31440    0.08640    1.000
    C84      C        0.78330    0.22530    0.08010    1.000
    H55      H        0.77100    0.19260    0.05460    1.000
    C85      C        0.81280    0.18610    0.11090    1.000
    H56      H        0.82160    0.12730    0.10590    1.000
    N30      N        0.67910    0.75910    0.02410    1.000
    C86      C        0.65250    0.69920    0.00230    1.000
    H57      H        0.62800    0.72110    0.98580    1.000
    C87      C        0.65950    0.60860    0.00300    1.000
    H58      H        0.64050    0.56850    0.98670    1.000
    C88      C        0.69520    0.57550    0.02820    1.000
    C89      C        0.72180    0.63670    0.05110    1.000
    H59      H        0.74660    0.61750    0.06770    1.000
    C90      C        0.71160    0.72520    0.04920    1.000
    H60      H        0.72910    0.76590    0.06720    1.000
    I19      I        0.52325    0.39880    0.38261    1.000
    I20      I        0.61360    0.50430    0.30870    1.000
    I21      I        0.73300    0.51970    0.53724    1.000
    I22      I        0.62410    0.60410    0.44268    1.000
    I23      I        0.62140    0.91140    0.94260    1.000
    Zn7      Zn       0.66569    0.89465    0.01727    1.000
    I24      I        0.72559    0.99600    0.03810    1.000
    N31      N        0.63430    0.91850    0.06440    1.000
    C91      C        0.64860    0.96610    0.10190    1.000
    H61      H        0.67460    0.98970    0.10650    1.000
    C92      C        0.62770    0.98110    0.13260    1.000
    H62      H        0.63950    0.01130    0.15900    1.000
    C93      C        0.58940    0.95300    0.12610    1.000
    C94      C        0.57340    0.90800    0.08850    1.000
    H63      H        0.54680    0.88760    0.08310    1.000
    C95      C        0.59660    0.89100    0.05760    1.000
    H64      H        0.58530    0.85980    0.03130    1.000
    C96      C        0.56540    0.97050    0.15850    1.000
    N32      N        0.57360    0.04210    0.18510    1.000
    C97      C        0.55150    0.04870    0.21480    1.000
    N33      N        0.52370    0.99230    0.22050    1.000
    C98      C        0.51650    0.92600    0.19070    1.000
    N34      N        0.53580    0.91170    0.15910    1.000
    N35      N        0.42050    0.75400    0.19580    1.000
    C99      C        0.43140    0.77020    0.15820    1.000
    H65      H        0.41660    0.74310    0.13220    1.000
    C100     C        0.46270    0.82370    0.15510    1.000
    H66      H        0.47020    0.83120    0.12790    1.000
    C101     C        0.48330    0.86710    0.19290    1.000
    C102     C        0.47140    0.85010    0.23240    1.000
    H67      H        0.48540    0.87630    0.25900    1.000
    C103     C        0.44010    0.79670    0.23250    1.000
    H68      H        0.43150    0.78860    0.25910    1.000
    I25      I        0.35673    0.69304    0.27067    1.000
    Zn8      Zn       0.37297    0.67090    0.19601    1.000
    I26      I        0.39045    0.52307    0.16529    1.000
    N36      N        0.56630    0.28220    0.29770    1.000
    C104     C        0.53670    0.22350    0.29720    1.000
    H69      H        0.51910    0.23360    0.31610    1.000
    C105     C        0.53140    0.15000    0.27060    1.000
    H70      H        0.50980    0.11090    0.27070    1.000
    C106     C        0.55640    0.13150    0.24370    1.000
    C107     C        0.58680    0.19300    0.24340    1.000
    H71      H        0.60450    0.18400    0.22450    1.000
    C108     C        0.59080    0.26650    0.27070    1.000
    H72      H        0.61160    0.30770    0.27040    1.000
    Zn9      Zn       0.58055    0.38458    0.34414    1.000
    N37      N        0.62070    0.31420    0.39100    1.000
    C109     C        0.61290    0.23170    0.39960    1.000
    H73      H        0.59070    0.20420    0.38100    1.000
    C110     C        0.63420    0.18070    0.43350    1.000
    H74      H        0.62740    0.11970    0.43740    1.000
    C111     C        0.66500    0.22000    0.46110    1.000
    C112     C        0.67360    0.31050    0.45380    1.000
    H75      H        0.69480    0.34040    0.47270    1.000
    C113     C        0.65110    0.35430    0.41940    1.000
    H76      H        0.65670    0.41580    0.41480    1.000
    C114     C        0.68910    0.16900    0.49790    1.000
    N38      N        0.67970    0.08190    0.50200    1.000
    C115     C        0.70310    0.03580    0.53330    1.000
    N39      N        0.73300    0.07230    0.56390    1.000
    C116     C        0.74000    0.15890    0.55740    1.000
    N40      N        0.71930    0.20920    0.52540    1.000
    N41      N        0.68270    0.75210    0.52850    1.000
    C117     C        0.71620    0.78600    0.55220    1.000
    H77      H        0.73590    0.74500    0.56620    1.000
    C118     C        0.72380    0.87600    0.55740    1.000
    H78      H        0.74720    0.89730    0.57640    1.000
    C119     C        0.69510    0.93750    0.53330    1.000
    C120     C        0.66110    0.90310    0.50940    1.000
    H79      H        0.64080    0.94200    0.49460    1.000
    C121     C        0.65630    0.81070    0.50690    1.000
    H80      H        0.63280    0.78750    0.48880    1.000
    N42      N        0.83260    0.29190    0.64540    1.000
    C122     C        0.81450    0.32900    0.60770    1.000
    H81      H        0.82290    0.38690    0.60060    1.000
    C123     C        0.78420    0.28810    0.57840    1.000
    H82      H        0.77210    0.31730    0.55180    1.000
    C124     C        0.77190    0.20410    0.58840    1.000
    C125     C        0.79060    0.16280    0.62780    1.000
    H83      H        0.78290    0.10470    0.63540    1.000
    C126     C        0.82100    0.20940    0.65540    1.000
    H84      H        0.83400    0.18210    0.68210    1.000
    I27      I        0.61257    0.00836    0.80528    1.000
    Zn10     Zn       0.58050    0.12964    0.84012    1.000
    I28      I        0.52539    0.11744    0.88108    1.000
    N43      N        0.56480    0.22950    0.79210    1.000
    C127     C        0.53810    0.29220    0.79650    1.000
    H85      H        0.52250    0.28370    0.81770    1.000
    C128     C        0.53280    0.36990    0.77050    1.000
    H86      H        0.51430    0.41430    0.77460    1.000
    C129     C        0.55450    0.38170    0.73900    1.000
    C130     C        0.58050    0.31240    0.73300    1.000
    H87      H        0.59450    0.31540    0.71020    1.000
    C131     C        0.58490    0.24010    0.76140    1.000
    H88      H        0.60360    0.19510    0.75850    1.000
    C132     C        0.55090    0.46500    0.71250    1.000
    N44      N        0.52390    0.52440    0.71730    1.000
    C133     C        0.51860    0.59160    0.68860    1.000
    N45      N        0.53950    0.60490    0.65850    1.000
    C134     C        0.56730    0.54520    0.65840    1.000
    N46      N        0.57400    0.47230    0.68350    1.000
    N47      N        0.63890    0.58940    0.56530    1.000
    C135     C        0.64650    0.52380    0.59470    1.000
    H89      H        0.66840    0.48570    0.59450    1.000
    C136     C        0.62490    0.50790    0.62490    1.000
    H90      H        0.63260    0.46170    0.64600    1.000
    C137     C        0.59210    0.55770    0.62520    1.000
    C138     C        0.58330    0.62600    0.59330    1.000
    H91      H        0.56000    0.66120    0.59010    1.000
    C139     C        0.60890    0.64000    0.56760    1.000
    H92      H        0.60470    0.69130    0.54920    1.000
    Zn11     Zn       0.67109    0.61504    0.51827    1.000
    N48      N        0.42360    0.76940    0.69100    1.000
    C140     C        0.43730    0.76100    0.65560    1.000
    H93      H        0.42540    0.79470    0.63020    1.000
    C141     C        0.46860    0.70430    0.65370    1.000
    H94      H        0.47780    0.69850    0.62740    1.000
    C142     C        0.48580    0.65770    0.68980    1.000
    C143     C        0.47080    0.66270    0.72710    1.000
    H95      H        0.48060    0.62660    0.75220    1.000
    C144     C        0.44040    0.72380    0.72570    1.000
    H96      H        0.43120    0.73300    0.75180    1.000
    I29      I        0.35919    0.84920    0.76400    1.000
    Zn12     Zn       0.37666    0.85653    0.68993    1.000
    I30      I        0.39173    0.00092    0.65426    1.000
    I31      I        0.61640    0.91170    0.94260    1.000
    I32      I        0.72850    0.98800    0.04090    1.000
    I33      I        0.52560    0.40600    0.37170    1.000
    I34      I        0.62430    0.49600    0.30840    1.000
    I35      I        0.73570    0.53400    0.54370    1.000
    I36      I        0.63050    0.60010    0.44380    1.000
    N49      N        0.87610    0.69920    0.11610    1.000
    C145     C        0.84980    0.65760    0.08550    1.000
    H97      H        0.84680    0.59430    0.08780    1.000
    C146     C        0.82650    0.70180    0.05030    1.000
    H98      H        0.80880    0.66880    0.02840    1.000
    C147     C        0.82900    0.79180    0.04730    1.000
    C148     C        0.85490    0.83800    0.08070    1.000
    H99      H        0.85650    0.90190    0.08100    1.000
    C149     C        0.87820    0.78580    0.11370    1.000
    H100     H        0.89680    0.81610    0.13580    1.000
    C150     C        0.80700    0.84600    0.00940    1.000
    N50      N        0.77760    0.80400    0.98110    1.000
    C151     C        0.76060    0.85820    0.94820    1.000
    N51      N        0.76800    0.94450    0.94160    1.000
    C152     C        0.79640    0.97680    0.97360    1.000
    N52      N        0.81720    0.93220    0.00740    1.000
    N53      N        0.67060    0.72990    0.85170    1.000
    C153     C        0.68270    0.81080    0.84530    1.000
    H101     H        0.67190    0.84010    0.81830    1.000
    C154     C        0.71090    0.85640    0.87640    1.000
    H102     H        0.71750    0.91700    0.87130    1.000
    C155     C        0.72860    0.81440    0.91360    1.000
    C156     C        0.71670    0.72530    0.91990    1.000
    H103     H        0.72900    0.69260    0.94540    1.000
    C157     C        0.68720    0.68610    0.88910    1.000
    H104     H        0.67840    0.62730    0.89410    1.000
    N54      N        0.82090    0.25910    0.97590    1.000
    C158     C        0.84750    0.19920    0.99770    1.000
    H105     H        0.87200    0.22110    0.01420    1.000
    C159     C        0.84050    0.10860    0.99700    1.000
    H106     H        0.85950    0.06850    0.01330    1.000
    C160     C        0.80480    0.07550    0.97180    1.000
    C161     C        0.77820    0.13670    0.94890    1.000
    H107     H        0.75340    0.11750    0.93230    1.000
    C162     C        0.78840    0.22520    0.95080    1.000
    H108     H        0.77090    0.26590    0.93280    1.000
    I37      I        0.97675    0.89880    0.61739    1.000
    I38      I        0.88640    0.00430    0.69130    1.000
    I39      I        0.76700    0.01970    0.46276    1.000
    I40      I        0.87590    0.10410    0.55732    1.000
    I41      I        0.87860    0.41140    0.05740    1.000
    Zn13     Zn       0.83431    0.39465    0.98273    1.000
    I42      I        0.77441    0.49600    0.96190    1.000
    N55      N        0.86570    0.41850    0.93560    1.000
    C163     C        0.85140    0.46610    0.89810    1.000
    H109     H        0.82540    0.48970    0.89350    1.000
    C164     C        0.87230    0.48110    0.86740    1.000
    H110     H        0.86050    0.51130    0.84100    1.000
    C165     C        0.91060    0.45300    0.87390    1.000
    C166     C        0.92660    0.40800    0.91150    1.000
    H111     H        0.95320    0.38760    0.91690    1.000
    C167     C        0.90340    0.39100    0.94240    1.000
    H112     H        0.91470    0.35980    0.96870    1.000
    C168     C        0.93460    0.47050    0.84150    1.000
    N56      N        0.92640    0.54210    0.81490    1.000
    C169     C        0.94850    0.54870    0.78520    1.000
    N57      N        0.97630    0.49230    0.77950    1.000
    C170     C        0.98350    0.42600    0.80930    1.000
    N58      N        0.96420    0.41170    0.84090    1.000
    N59      N        0.07950    0.25400    0.80420    1.000
    C171     C        0.06860    0.27020    0.84180    1.000
    H113     H        0.08340    0.24310    0.86780    1.000
    C172     C        0.03730    0.32370    0.84490    1.000
    H114     H        0.02980    0.33120    0.87210    1.000
    C173     C        0.01670    0.36710    0.80710    1.000
    C174     C        0.02860    0.35010    0.76760    1.000
    H115     H        0.01460    0.37630    0.74100    1.000
    C175     C        0.05990    0.29670    0.76750    1.000
    H116     H        0.06850    0.28860    0.74090    1.000
    I43      I        0.14327    0.19304    0.72933    1.000
    Zn14     Zn       0.12703    0.17090    0.80399    1.000
    I44      I        0.10955    0.02307    0.83471    1.000
    N60      N        0.93370    0.78220    0.70230    1.000
    C176     C        0.96330    0.72350    0.70280    1.000
    H117     H        0.98090    0.73360    0.68390    1.000
    C177     C        0.96860    0.65000    0.72940    1.000
    H118     H        0.99020    0.61090    0.72930    1.000
    C178     C        0.94360    0.63150    0.75630    1.000
    C179     C        0.91320    0.69300    0.75660    1.000
    H119     H        0.89550    0.68400    0.77550    1.000
    C180     C        0.90920    0.76650    0.72930    1.000
    H120     H        0.88840    0.80770    0.72960    1.000
    Zn15     Zn       0.91945    0.88458    0.65586    1.000
    N61      N        0.87930    0.81420    0.60900    1.000
    C181     C        0.88710    0.73170    0.60040    1.000
    H121     H        0.90930    0.70420    0.61900    1.000
    C182     C        0.86580    0.68070    0.56650    1.000
    H122     H        0.87260    0.61970    0.56260    1.000
    C183     C        0.83500    0.72000    0.53890    1.000
    C184     C        0.82640    0.81050    0.54620    1.000
    H123     H        0.80520    0.84040    0.52730    1.000
    C185     C        0.84890    0.85430    0.58060    1.000
    H124     H        0.84330    0.91580    0.58520    1.000
    C186     C        0.81090    0.66900    0.50210    1.000
    N62      N        0.82030    0.58190    0.49800    1.000
    C187     C        0.79690    0.53580    0.46670    1.000
    N63      N        0.76700    0.57230    0.43610    1.000
    C188     C        0.76000    0.65890    0.44260    1.000
    N64      N        0.78070    0.70920    0.47460    1.000
    N65      N        0.81730    0.25210    0.47150    1.000
    C189     C        0.78380    0.28600    0.44780    1.000
    H125     H        0.76410    0.24500    0.43380    1.000
    C190     C        0.77620    0.37600    0.44260    1.000
    H126     H        0.75280    0.39730    0.42360    1.000
    C191     C        0.80490    0.43750    0.46670    1.000
    C192     C        0.83890    0.40310    0.49060    1.000
    H127     H        0.85920    0.44200    0.50540    1.000
    C193     C        0.84370    0.31070    0.49310    1.000
    H128     H        0.86720    0.28750    0.51120    1.000
    N66      N        0.66740    0.79190    0.35460    1.000
    C194     C        0.68550    0.82900    0.39230    1.000
    H129     H        0.67710    0.88690    0.39940    1.000
    C195     C        0.71580    0.78810    0.42160    1.000
    H130     H        0.72790    0.81730    0.44820    1.000
    C196     C        0.72810    0.70410    0.41160    1.000
    C197     C        0.70940    0.66280    0.37220    1.000
    H131     H        0.71710    0.60470    0.36460    1.000
    C198     C        0.67900    0.70940    0.34460    1.000
    H132     H        0.66600    0.68210    0.31790    1.000
    I45      I        0.88743    0.50836    0.19472    1.000
    Zn16     Zn       0.91950    0.62964    0.15988    1.000
    I46      I        0.97461    0.61744    0.11892    1.000
    N67      N        0.93520    0.72950    0.20790    1.000
    C199     C        0.96190    0.79220    0.20350    1.000
    H133     H        0.97750    0.78370    0.18230    1.000
    C200     C        0.96720    0.86990    0.22950    1.000
    H134     H        0.98570    0.91430    0.22540    1.000
    C201     C        0.94550    0.88170    0.26100    1.000
    C202     C        0.91950    0.81240    0.26700    1.000
    H135     H        0.90550    0.81540    0.28980    1.000
    C203     C        0.91510    0.74010    0.23860    1.000
    H136     H        0.89640    0.69510    0.24150    1.000
    C204     C        0.94910    0.96500    0.28750    1.000
    N68      N        0.97610    0.02440    0.28270    1.000
    C205     C        0.98140    0.09160    0.31140    1.000
    N69      N        0.96050    0.10490    0.34150    1.000
    C206     C        0.93270    0.04520    0.34160    1.000
    N70      N        0.92600    0.97230    0.31650    1.000
    N71      N        0.86110    0.08940    0.43470    1.000
    C207     C        0.85350    0.02380    0.40530    1.000
    H137     H        0.83160    0.98570    0.40550    1.000
    C208     C        0.87510    0.00790    0.37510    1.000
    H138     H        0.86740    0.96170    0.35400    1.000
    C209     C        0.90790    0.05770    0.37480    1.000
    C210     C        0.91670    0.12600    0.40670    1.000
    H139     H        0.94000    0.16120    0.40990    1.000
    C211     C        0.89110    0.14000    0.43240    1.000
    H140     H        0.89530    0.19130    0.45080    1.000
    Zn17     Zn       0.82891    0.11504    0.48173    1.000
    N72      N        0.07640    0.26940    0.30900    1.000
    C212     C        0.06270    0.26100    0.34440    1.000
    H141     H        0.07460    0.29470    0.36980    1.000
    C213     C        0.03140    0.20430    0.34630    1.000
    H142     H        0.02220    0.19850    0.37260    1.000
    C214     C        0.01420    0.15770    0.31020    1.000
    C215     C        0.02920    0.16270    0.27290    1.000
    H143     H        0.01940    0.12660    0.24780    1.000
    C216     C        0.05960    0.22380    0.27430    1.000
    H144     H        0.06880    0.23300    0.24820    1.000
    I47      I        0.14081    0.34920    0.23600    1.000
    Zn18     Zn       0.12334    0.35653    0.31007    1.000
    I48      I        0.10827    0.50092    0.34574    1.000
    I49      I        0.88360    0.41170    0.05740    1.000
    I50      I        0.77150    0.48800    0.95910    1.000
    I51      I        0.97440    0.90600    0.62830    1.000
    I52      I        0.87570    0.99600    0.69160    1.000
    I53      I        0.76430    0.03400    0.45630    1.000
    I54      I        0.86950    0.10010    0.55620    1.000
    N73      N        0.37610    0.19920    0.11610    1.000
    C217     C        0.34980    0.15760    0.08550    1.000
    H145     H        0.34680    0.09430    0.08780    1.000
    C218     C        0.32650    0.20180    0.05030    1.000
    H146     H        0.30880    0.16880    0.02840    1.000
    C219     C        0.32900    0.29180    0.04730    1.000
    C220     C        0.35490    0.33800    0.08070    1.000
    H147     H        0.35650    0.40190    0.08100    1.000
    C221     C        0.37820    0.28580    0.11370    1.000
    H148     H        0.39680    0.31610    0.13580    1.000
    C222     C        0.30700    0.34600    0.00940    1.000
    N74      N        0.27760    0.30400    0.98110    1.000
    C223     C        0.26060    0.35820    0.94820    1.000
    N75      N        0.26800    0.44450    0.94160    1.000
    C224     C        0.29640    0.47680    0.97360    1.000
    N76      N        0.31720    0.43220    0.00740    1.000
    N77      N        0.17060    0.22990    0.85170    1.000
    C225     C        0.18270    0.31080    0.84530    1.000
    H149     H        0.17190    0.34010    0.81830    1.000
    C226     C        0.21090    0.35640    0.87640    1.000
    H150     H        0.21750    0.41700    0.87130    1.000
    C227     C        0.22860    0.31440    0.91360    1.000
    C228     C        0.21670    0.22530    0.91990    1.000
    H151     H        0.22900    0.19260    0.94540    1.000
    C229     C        0.18720    0.18610    0.88910    1.000
    H152     H        0.17840    0.12730    0.89410    1.000
    N78      N        0.32090    0.75910    0.97590    1.000
    C230     C        0.34750    0.69920    0.99770    1.000
    H153     H        0.37200    0.72110    0.01420    1.000
    C231     C        0.34050    0.60860    0.99700    1.000
    H154     H        0.35950    0.56850    0.01330    1.000
    C232     C        0.30480    0.57550    0.97180    1.000
    C233     C        0.27820    0.63670    0.94890    1.000
    H155     H        0.25340    0.61750    0.93230    1.000
    C234     C        0.28840    0.72520    0.95080    1.000
    H156     H        0.27090    0.76590    0.93280    1.000
    I55      I        0.47675    0.39880    0.61739    1.000
    I56      I        0.38640    0.50430    0.69130    1.000
    I57      I        0.26700    0.51970    0.46276    1.000
    I58      I        0.37590    0.60410    0.55732    1.000
    I59      I        0.37860    0.91140    0.05740    1.000
    Zn19     Zn       0.33431    0.89465    0.98273    1.000
    I60      I        0.27441    0.99600    0.96190    1.000
    N79      N        0.36570    0.91850    0.93560    1.000
    C235     C        0.35140    0.96610    0.89810    1.000
    H157     H        0.32540    0.98970    0.89350    1.000
    C236     C        0.37230    0.98110    0.86740    1.000
    H158     H        0.36050    0.01130    0.84100    1.000
    C237     C        0.41060    0.95300    0.87390    1.000
    C238     C        0.42660    0.90800    0.91150    1.000
    H159     H        0.45320    0.88760    0.91690    1.000
    C239     C        0.40340    0.89100    0.94240    1.000
    H160     H        0.41470    0.85980    0.96870    1.000
    C240     C        0.43460    0.97050    0.84150    1.000
    N80      N        0.42640    0.04210    0.81490    1.000
    C241     C        0.44850    0.04870    0.78520    1.000
    N81      N        0.47630    0.99230    0.77950    1.000
    C242     C        0.48350    0.92600    0.80930    1.000
    N82      N        0.46420    0.91170    0.84090    1.000
    N83      N        0.57950    0.75400    0.80420    1.000
    C243     C        0.56860    0.77020    0.84180    1.000
    H161     H        0.58340    0.74310    0.86780    1.000
    C244     C        0.53730    0.82370    0.84490    1.000
    H162     H        0.52980    0.83120    0.87210    1.000
    C245     C        0.51670    0.86710    0.80710    1.000
    C246     C        0.52860    0.85010    0.76760    1.000
    H163     H        0.51460    0.87630    0.74100    1.000
    C247     C        0.55990    0.79670    0.76750    1.000
    H164     H        0.56850    0.78860    0.74090    1.000
    I61      I        0.64327    0.69304    0.72933    1.000
    Zn20     Zn       0.62703    0.67090    0.80399    1.000
    I62      I        0.60955    0.52307    0.83471    1.000
    N84      N        0.43370    0.28220    0.70230    1.000
    C248     C        0.46330    0.22350    0.70280    1.000
    H165     H        0.48090    0.23360    0.68390    1.000
    C249     C        0.46860    0.15000    0.72940    1.000
    H166     H        0.49020    0.11090    0.72930    1.000
    C250     C        0.44360    0.13150    0.75630    1.000
    C251     C        0.41320    0.19300    0.75660    1.000
    H167     H        0.39550    0.18400    0.77550    1.000
    C252     C        0.40920    0.26650    0.72930    1.000
    H168     H        0.38840    0.30770    0.72960    1.000
    Zn21     Zn       0.41945    0.38458    0.65586    1.000
    N85      N        0.37930    0.31420    0.60900    1.000
    C253     C        0.38710    0.23170    0.60040    1.000
    H169     H        0.40930    0.20420    0.61900    1.000
    C254     C        0.36580    0.18070    0.56650    1.000
    H170     H        0.37260    0.11970    0.56260    1.000
    C255     C        0.33500    0.22000    0.53890    1.000
    C256     C        0.32640    0.31050    0.54620    1.000
    H171     H        0.30520    0.34040    0.52730    1.000
    C257     C        0.34890    0.35430    0.58060    1.000
    H172     H        0.34330    0.41580    0.58520    1.000
    C258     C        0.31090    0.16900    0.50210    1.000
    N86      N        0.32030    0.08190    0.49800    1.000
    C259     C        0.29690    0.03580    0.46670    1.000
    N87      N        0.26700    0.07230    0.43610    1.000
    C260     C        0.26000    0.15890    0.44260    1.000
    N88      N        0.28070    0.20920    0.47460    1.000
    N89      N        0.31730    0.75210    0.47150    1.000
    C261     C        0.28380    0.78600    0.44780    1.000
    H173     H        0.26410    0.74500    0.43380    1.000
    C262     C        0.27620    0.87600    0.44260    1.000
    H174     H        0.25280    0.89730    0.42360    1.000
    C263     C        0.30490    0.93750    0.46670    1.000
    C264     C        0.33890    0.90310    0.49060    1.000
    H175     H        0.35920    0.94200    0.50540    1.000
    C265     C        0.34370    0.81070    0.49310    1.000
    H176     H        0.36720    0.78750    0.51120    1.000
    N90      N        0.16740    0.29190    0.35460    1.000
    C266     C        0.18550    0.32900    0.39230    1.000
    H177     H        0.17710    0.38690    0.39940    1.000
    C267     C        0.21580    0.28810    0.42160    1.000
    H178     H        0.22790    0.31730    0.44820    1.000
    C268     C        0.22810    0.20410    0.41160    1.000
    C269     C        0.20940    0.16280    0.37220    1.000
    H179     H        0.21710    0.10470    0.36460    1.000
    C270     C        0.17900    0.20940    0.34460    1.000
    H180     H        0.16600    0.18210    0.31790    1.000
    I63      I        0.38743    0.00836    0.19472    1.000
    Zn22     Zn       0.41950    0.12964    0.15988    1.000
    I64      I        0.47461    0.11744    0.11892    1.000
    N91      N        0.43520    0.22950    0.20790    1.000
    C271     C        0.46190    0.29220    0.20350    1.000
    H181     H        0.47750    0.28370    0.18230    1.000
    C272     C        0.46720    0.36990    0.22950    1.000
    H182     H        0.48570    0.41430    0.22540    1.000
    C273     C        0.44550    0.38170    0.26100    1.000
    C274     C        0.41950    0.31240    0.26700    1.000
    H183     H        0.40550    0.31540    0.28980    1.000
    C275     C        0.41510    0.24010    0.23860    1.000
    H184     H        0.39640    0.19510    0.24150    1.000
    C276     C        0.44910    0.46500    0.28750    1.000
    N92      N        0.47610    0.52440    0.28270    1.000
    C277     C        0.48140    0.59160    0.31140    1.000
    N93      N        0.46050    0.60490    0.34150    1.000
    C278     C        0.43270    0.54520    0.34160    1.000
    N94      N        0.42600    0.47230    0.31650    1.000
    N95      N        0.36110    0.58940    0.43470    1.000
    C279     C        0.35350    0.52380    0.40530    1.000
    H185     H        0.33160    0.48570    0.40550    1.000
    C280     C        0.37510    0.50790    0.37510    1.000
    H186     H        0.36740    0.46170    0.35400    1.000
    C281     C        0.40790    0.55770    0.37480    1.000
    C282     C        0.41670    0.62600    0.40670    1.000
    H187     H        0.44000    0.66120    0.40990    1.000
    C283     C        0.39110    0.64000    0.43240    1.000
    H188     H        0.39530    0.69130    0.45080    1.000
    Zn23     Zn       0.32891    0.61504    0.48173    1.000
    N96      N        0.57640    0.76940    0.30900    1.000
    C284     C        0.56270    0.76100    0.34440    1.000
    H189     H        0.57460    0.79470    0.36980    1.000
    C285     C        0.53140    0.70430    0.34630    1.000
    H190     H        0.52220    0.69850    0.37260    1.000
    C286     C        0.51420    0.65770    0.31020    1.000
    C287     C        0.52920    0.66270    0.27290    1.000
    H191     H        0.51940    0.62660    0.24780    1.000
    C288     C        0.55960    0.72380    0.27430    1.000
    H192     H        0.56880    0.73300    0.24820    1.000
    I65      I        0.64081    0.84920    0.23600    1.000
    Zn24     Zn       0.62334    0.85653    0.31007    1.000
    I66      I        0.60827    0.00092    0.34574    1.000
    I67      I        0.38360    0.91170    0.05740    1.000
    I68      I        0.27150    0.98800    0.95910    1.000
    I69      I        0.47440    0.40600    0.62830    1.000
    I70      I        0.37570    0.49600    0.69160    1.000
    I71      I        0.26430    0.53400    0.45630    1.000
    I72      I        0.36950    0.60010    0.55620    1.000
