# CIF file generated by openbabel 3.1.0, see https://openbabel.org
data_I
_chemical_name_common 'image0'
_cell_length_a 10.5059
_cell_length_b 11.1476
_cell_length_c 12.7931
_cell_angle_alpha 100.955
_cell_angle_beta 110.45
_cell_angle_gamma 99.939
_space_group_name_H-M_alt 'P 1'
_space_group_name_Hall 'P 1'
loop_
    _symmetry_equiv_pos_as_xyz
    x,y,z
loop_
    _atom_site_label
    _atom_site_type_symbol
    _atom_site_fract_x
    _atom_site_fract_y
    _atom_site_fract_z
    _atom_site_occupancy
    Dy1      Dy       0.39328    0.95091    0.82415    1.000
    O1       O        0.34180    0.99440    0.98570    1.000
    O2       O        0.38090    0.05840    0.16990    1.000
    O3       O        0.43260    0.78030    0.90340    1.000
    O4       O        0.50080    0.83070    0.09610    1.000
    O5       O        0.16770    0.79300    0.73790    1.000
    O6       O        0.31830    0.76500    0.65950    1.000
    C1       C        0.29810    0.02280    0.06510    1.000
    C2       C        0.14430    0.01260    0.03260    1.000
    C3       C        0.09320    0.05770    0.11580    1.000
    C4       C        0.05110    0.95490    0.91850    1.000
    H1       H        0.08560    0.92410    0.86390    1.000
    C5       C        0.47110    0.75450    0.99800    1.000
    C6       C        0.48390    0.62160    0.99800    1.000
    C7       C        0.48600    0.54070    0.90050    1.000
    C8       C        0.49740    0.58000    0.09530    1.000
    H2       H        0.49550    0.63380    0.15960    1.000
    C9       C        0.20070    0.72940    0.66500    1.000
    C10      C        0.09760    0.61020    0.58040    1.000
    C11      C        0.13630    0.53130    0.50480    1.000
    C12      C        0.96140    0.57910    0.57540    1.000
    N1       N        0.17580    0.11630    0.22480    1.000
    N2       N        0.27900    0.53400    0.52160    1.000
    N3       N        0.90500    0.65300    0.64300    1.000
    Dy2      Dy       0.60672    0.04909    0.17585    1.000
    O7       O        0.65820    0.00560    0.01430    1.000
    O8       O        0.61910    0.94160    0.83010    1.000
    O9       O        0.56740    0.21970    0.09660    1.000
    O10      O        0.49920    0.16930    0.90390    1.000
    O11      O        0.83230    0.20700    0.26210    1.000
    O12      O        0.68170    0.23500    0.34050    1.000
    C13      C        0.70190    0.97720    0.93490    1.000
    C14      C        0.85570    0.98740    0.96740    1.000
    C15      C        0.90680    0.94230    0.88420    1.000
    C16      C        0.94890    0.04510    0.08150    1.000
    H3       H        0.91440    0.07590    0.13610    1.000
    C17      C        0.52890    0.24550    0.00200    1.000
    C18      C        0.51610    0.37840    0.00200    1.000
    C19      C        0.51400    0.45930    0.09950    1.000
    C20      C        0.50260    0.42000    0.90470    1.000
    H4       H        0.50450    0.36620    0.84040    1.000
    C21      C        0.79930    0.27060    0.33500    1.000
    C22      C        0.90240    0.38980    0.41960    1.000
    C23      C        0.86370    0.46870    0.49520    1.000
    C24      C        0.03860    0.42090    0.42460    1.000
    N4       N        0.82420    0.88370    0.77520    1.000
    N5       N        0.72100    0.46600    0.47840    1.000
    N6       N        0.09500    0.34700    0.35700    1.000
