# CIF file generated by openbabel 3.1.0, see https://openbabel.org
data_I
_chemical_name_common 'image0'
_cell_length_a 10.4993
_cell_length_b 16.9416
_cell_length_c 12.3346
_cell_angle_alpha 90
_cell_angle_beta 100.516
_cell_angle_gamma 90
_space_group_name_H-M_alt 'P 1'
_space_group_name_Hall 'P 1'
loop_
    _symmetry_equiv_pos_as_xyz
    x,y,z
loop_
    _atom_site_label
    _atom_site_type_symbol
    _atom_site_fract_x
    _atom_site_fract_y
    _atom_site_fract_z
    _atom_site_occupancy
    Cd1      Cd       0.79437    0.10447    0.16037    1.000
    C1       C        0.21290    0.16190    0.25000    1.000
    C2       C        0.22240    0.22560    0.32120    1.000
    H1       H        0.14930    0.24270    0.34720    1.000
    C3       C        0.33910    0.26420    0.35430    1.000
    C4       C        0.44680    0.23890    0.31290    1.000
    H2       H        0.52450    0.26630    0.33140    1.000
    C5       C        0.44020    0.17360    0.24430    1.000
    C6       C        0.32390    0.13440    0.21410    1.000
    H3       H        0.31920    0.08980    0.16970    1.000
    C7       C        0.08400    0.12230    0.20890    1.000
    C8       C        0.35110    0.33170    0.43590    1.000
    C9       C        0.56080    0.14620    0.20670    1.000
    C10      C        0.74060    0.92610    0.07630    1.000
    C11      C        0.57180    0.84720    0.10650    1.000
    H4       H        0.48690    0.84260    0.06020    1.000
    H5       H        0.56570    0.83280    0.18150    1.000
    C12      C        0.66990    0.79710    0.06360    1.000
    H6       H        0.69990    0.75410    0.11380    1.000
    H7       H        0.63460    0.77560    0.99150    1.000
    N1       N        0.62430    0.92710    0.10160    1.000
    H8       H        0.58400    0.96950    0.11370    1.000
    N2       N        0.77430    0.85350    0.05770    1.000
    H9       H        0.84890    0.84060    0.04360    1.000
    O1       O        0.08450    0.05610    0.16440    1.000
    O2       O        0.98510    0.15870    0.22360    1.000
    O3       O        0.26720    0.33690    0.49380    1.000
    O4       O        0.44670    0.37720    0.43860    1.000
    O5       O        0.66120    0.18730    0.23050    1.000
    O6       O        0.55770    0.08380    0.15190    1.000
    O7       O        0.80950    0.98678    0.06900    1.000
    Cd2      Cd       0.70563    0.60447    0.33963    1.000
    C13      C        0.28710    0.66190    0.25000    1.000
    C14      C        0.27760    0.72560    0.17880    1.000
    H10      H        0.35070    0.74270    0.15280    1.000
    C15      C        0.16090    0.76420    0.14570    1.000
    C16      C        0.05320    0.73890    0.18710    1.000
    H11      H        0.97550    0.76630    0.16860    1.000
    C17      C        0.05980    0.67360    0.25570    1.000
    C18      C        0.17610    0.63440    0.28590    1.000
    H12      H        0.18080    0.58980    0.33030    1.000
    C19      C        0.41600    0.62230    0.29110    1.000
    C20      C        0.14890    0.83170    0.06410    1.000
    C21      C        0.93920    0.64620    0.29330    1.000
    C22      C        0.75940    0.42610    0.42370    1.000
    C23      C        0.92820    0.34720    0.39350    1.000
    H13      H        0.01310    0.34260    0.43980    1.000
    H14      H        0.93430    0.33280    0.31850    1.000
    C24      C        0.83010    0.29710    0.43640    1.000
    H15      H        0.80010    0.25410    0.38620    1.000
    H16      H        0.86540    0.27560    0.50850    1.000
    N3       N        0.87570    0.42710    0.39840    1.000
    H17      H        0.91600    0.46950    0.38630    1.000
    N4       N        0.72570    0.35350    0.44230    1.000
    H18      H        0.65110    0.34060    0.45640    1.000
    O8       O        0.41550    0.55610    0.33560    1.000
    O9       O        0.51490    0.65870    0.27640    1.000
    O10      O        0.23280    0.83690    0.00620    1.000
    O11      O        0.05330    0.87720    0.06140    1.000
    O12      O        0.83880    0.68730    0.26950    1.000
    O13      O        0.94230    0.58380    0.34810    1.000
    O14      O        0.69050    0.48678    0.43100    1.000
    Cd3      Cd       0.20563    0.89553    0.83963    1.000
    C25      C        0.78710    0.83810    0.75000    1.000
    C26      C        0.77760    0.77440    0.67880    1.000
    H19      H        0.85070    0.75730    0.65280    1.000
    C27      C        0.66090    0.73580    0.64570    1.000
    C28      C        0.55320    0.76110    0.68710    1.000
    H20      H        0.47550    0.73370    0.66860    1.000
    C29      C        0.55980    0.82640    0.75570    1.000
    C30      C        0.67610    0.86560    0.78590    1.000
    H21      H        0.68080    0.91020    0.83030    1.000
    C31      C        0.91600    0.87770    0.79110    1.000
    C32      C        0.64890    0.66830    0.56410    1.000
    C33      C        0.43920    0.85380    0.79330    1.000
    C34      C        0.25940    0.07390    0.92370    1.000
    C35      C        0.42820    0.15280    0.89350    1.000
    H22      H        0.51310    0.15740    0.93980    1.000
    H23      H        0.43430    0.16720    0.81850    1.000
    C36      C        0.33010    0.20290    0.93640    1.000
    H24      H        0.30010    0.24590    0.88620    1.000
    H25      H        0.36540    0.22440    0.00850    1.000
    N5       N        0.37570    0.07290    0.89840    1.000
    H26      H        0.41600    0.03050    0.88630    1.000
    N6       N        0.22570    0.14650    0.94230    1.000
    H27      H        0.15110    0.15940    0.95640    1.000
    O15      O        0.91550    0.94390    0.83560    1.000
    O16      O        0.01490    0.84130    0.77640    1.000
    O17      O        0.73280    0.66310    0.50620    1.000
    O18      O        0.55330    0.62280    0.56140    1.000
    O19      O        0.33880    0.81270    0.76950    1.000
    O20      O        0.44230    0.91620    0.84810    1.000
    O21      O        0.19050    0.01322    0.93100    1.000
    Cd4      Cd       0.29437    0.39553    0.66037    1.000
    C37      C        0.71290    0.33810    0.75000    1.000
    C38      C        0.72240    0.27440    0.82120    1.000
    H28      H        0.64930    0.25730    0.84720    1.000
    C39      C        0.83910    0.23580    0.85430    1.000
    C40      C        0.94680    0.26110    0.81290    1.000
    H29      H        0.02450    0.23370    0.83140    1.000
    C41      C        0.94020    0.32640    0.74430    1.000
    C42      C        0.82390    0.36560    0.71410    1.000
    H30      H        0.81920    0.41020    0.66970    1.000
    C43      C        0.58400    0.37770    0.70890    1.000
    C44      C        0.85110    0.16830    0.93590    1.000
    C45      C        0.06080    0.35380    0.70670    1.000
    C46      C        0.24060    0.57390    0.57630    1.000
    C47      C        0.07180    0.65280    0.60650    1.000
    H31      H        0.98690    0.65740    0.56020    1.000
    H32      H        0.06570    0.66720    0.68150    1.000
    C48      C        0.16990    0.70290    0.56360    1.000
    H33      H        0.19990    0.74590    0.61380    1.000
    H34      H        0.13460    0.72440    0.49150    1.000
    N7       N        0.12430    0.57290    0.60160    1.000
    H35      H        0.08400    0.53050    0.61370    1.000
    N8       N        0.27430    0.64650    0.55770    1.000
    H36      H        0.34890    0.65940    0.54360    1.000
    O22      O        0.58450    0.44390    0.66440    1.000
    O23      O        0.48510    0.34130    0.72360    1.000
    O24      O        0.76720    0.16310    0.99380    1.000
    O25      O        0.94670    0.12280    0.93860    1.000
    O26      O        0.16120    0.31270    0.73050    1.000
    O27      O        0.05770    0.41620    0.65190    1.000
    O28      O        0.30950    0.51322    0.56900    1.000
    Cd5      Cd       0.00000    0.00000    0.00000    1.000
    Cd6      Cd       0.50000    0.50000    0.50000    1.000
