# CIF file generated by openbabel 3.1.0, see https://openbabel.org
data_I
_chemical_name_common 'image0'
_cell_length_a 9.5467
_cell_length_b 26.405
_cell_length_c 7.9946
_cell_angle_alpha 90
_cell_angle_beta 99.472
_cell_angle_gamma 90
_space_group_name_H-M_alt 'P 1'
_space_group_name_Hall 'P 1'
loop_
    _symmetry_equiv_pos_as_xyz
    x,y,z
loop_
    _atom_site_label
    _atom_site_type_symbol
    _atom_site_fract_x
    _atom_site_fract_y
    _atom_site_fract_z
    _atom_site_occupancy
    Zn1      Zn       0.60496    0.56847    0.49235    1.000
    Zn2      Zn       0.36762    0.76380    0.25171    1.000
    Zn3      Zn       0.17504    0.55587    0.98787    1.000
    P1       P        0.42150    0.52027    0.75679    1.000
    H1       H        0.54300    0.52770    0.87300    1.000
    P2       P        0.54598    0.68781    0.48545    1.000
    H2       H        0.65400    0.69600    0.57300    1.000
    P3       P        0.20489    0.67683    0.02240    1.000
    H3       H        0.07400    0.68500    0.94200    1.000
    P4       P        0.87725    0.52931    0.74344    1.000
    H4       H        0.96700    0.50900    0.65600    1.000
    O1       O        0.43960    0.54841    0.59500    1.000
    O2       O        0.38540    0.46561    0.72200    1.000
    O3       O        0.55210    0.63643    0.40360    1.000
    O4       O        0.54070    0.73046    0.35940    1.000
    O5       O        0.42240    0.69005    0.58400    1.000
    O6       O        0.22510    0.71489    0.16550    1.000
    O7       O        0.30230    0.68519    0.89430    1.000
    O8       O        0.21930    0.62310    0.08920    1.000
    O9       O        0.32330    0.54721    0.85200    1.000
    O10      O        0.98580    0.55594    0.87060    1.000
    O11      O        0.77660    0.56769    0.65010    1.000
    O12      O        0.80120    0.48684    0.81470    1.000
    Zn4      Zn       0.39504    0.06847    0.00765    1.000
    Zn5      Zn       0.63238    0.26380    0.24829    1.000
    Zn6      Zn       0.82496    0.05587    0.51213    1.000
    P5       P        0.57850    0.02027    0.74321    1.000
    H5       H        0.45700    0.02770    0.62700    1.000
    P6       P        0.45402    0.18781    0.01455    1.000
    H6       H        0.34600    0.19600    0.92700    1.000
    P7       P        0.79511    0.17683    0.47760    1.000
    H7       H        0.92600    0.18500    0.55800    1.000
    P8       P        0.12275    0.02931    0.75656    1.000
    H8       H        0.03300    0.00900    0.84400    1.000
    O13      O        0.56040    0.04841    0.90500    1.000
    O14      O        0.61460    0.96561    0.77800    1.000
    O15      O        0.44790    0.13643    0.09640    1.000
    O16      O        0.45930    0.23046    0.14060    1.000
    O17      O        0.57760    0.19005    0.91600    1.000
    O18      O        0.77490    0.21489    0.33450    1.000
    O19      O        0.69770    0.18519    0.60570    1.000
    O20      O        0.78070    0.12310    0.41080    1.000
    O21      O        0.67670    0.04721    0.64800    1.000
    O22      O        0.01420    0.05594    0.62940    1.000
    O23      O        0.22340    0.06769    0.84990    1.000
    O24      O        0.19880    0.98684    0.68530    1.000
    Zn7      Zn       0.39504    0.43153    0.50765    1.000
    Zn8      Zn       0.63238    0.23620    0.74829    1.000
    Zn9      Zn       0.82496    0.44413    0.01213    1.000
    P9       P        0.57850    0.47973    0.24321    1.000
    H9       H        0.45700    0.47230    0.12700    1.000
    P10      P        0.45402    0.31219    0.51455    1.000
    H10      H        0.34600    0.30400    0.42700    1.000
    P11      P        0.79511    0.32317    0.97760    1.000
    H11      H        0.92600    0.31500    0.05800    1.000
    P12      P        0.12275    0.47069    0.25656    1.000
    H12      H        0.03300    0.49100    0.34400    1.000
    O25      O        0.56040    0.45159    0.40500    1.000
    O26      O        0.61460    0.53439    0.27800    1.000
    O27      O        0.44790    0.36357    0.59640    1.000
    O28      O        0.45930    0.26954    0.64060    1.000
    O29      O        0.57760    0.30995    0.41600    1.000
    O30      O        0.77490    0.28511    0.83450    1.000
    O31      O        0.69770    0.31481    0.10570    1.000
    O32      O        0.78070    0.37690    0.91080    1.000
    O33      O        0.67670    0.45279    0.14800    1.000
    O34      O        0.01420    0.44406    0.12940    1.000
    O35      O        0.22340    0.43231    0.34990    1.000
    O36      O        0.19880    0.51316    0.18530    1.000
    Zn10     Zn       0.60496    0.93153    0.99235    1.000
    Zn11     Zn       0.36762    0.73620    0.75171    1.000
    Zn12     Zn       0.17504    0.94413    0.48787    1.000
    P13      P        0.42150    0.97973    0.25679    1.000
    H13      H        0.54300    0.97230    0.37300    1.000
    P14      P        0.54598    0.81219    0.98545    1.000
    H14      H        0.65400    0.80400    0.07300    1.000
    P15      P        0.20489    0.82317    0.52240    1.000
    H15      H        0.07400    0.81500    0.44200    1.000
    P16      P        0.87725    0.97069    0.24344    1.000
    H16      H        0.96700    0.99100    0.15600    1.000
    O37      O        0.43960    0.95159    0.09500    1.000
    O38      O        0.38540    0.03439    0.22200    1.000
    O39      O        0.55210    0.86357    0.90360    1.000
    O40      O        0.54070    0.76954    0.85940    1.000
    O41      O        0.42240    0.80995    0.08400    1.000
    O42      O        0.22510    0.78511    0.66550    1.000
    O43      O        0.30230    0.81481    0.39430    1.000
    O44      O        0.21930    0.87690    0.58920    1.000
    O45      O        0.32330    0.95279    0.35200    1.000
    O46      O        0.98580    0.94406    0.37060    1.000
    O47      O        0.77660    0.93231    0.15010    1.000
    O48      O        0.80120    0.01316    0.31470    1.000
