# CIF file generated by openbabel 3.1.0, see https://openbabel.org
data_I
_chemical_name_common 'image0'
_cell_length_a 11.2621
_cell_length_b 7.1374
_cell_length_c 6.5867
_cell_angle_alpha 90
_cell_angle_beta 109.523
_cell_angle_gamma 90
_space_group_name_H-M_alt 'P 1'
_space_group_name_Hall 'P 1'
loop_
    _symmetry_equiv_pos_as_xyz
    x,y,z
loop_
    _atom_site_label
    _atom_site_type_symbol
    _atom_site_fract_x
    _atom_site_fract_y
    _atom_site_fract_z
    _atom_site_occupancy
    O1       O        0.99210    0.80260    0.66430    1.000
    O2       O        0.16990    0.74990    0.11430    1.000
    O3       O        0.34610    0.60850    0.11800    1.000
    C1       C        0.23500    0.65300    0.03360    1.000
    H1       H        0.19510    0.60960    0.89420    1.000
    O4       O        0.49210    0.30260    0.66430    1.000
    O5       O        0.66990    0.24990    0.11430    1.000
    O6       O        0.84610    0.10850    0.11800    1.000
    C2       C        0.73500    0.15300    0.03360    1.000
    H2       H        0.69510    0.10960    0.89420    1.000
    O7       O        0.00790    0.80260    0.33570    1.000
    O8       O        0.83010    0.74990    0.88570    1.000
    O9       O        0.65390    0.60850    0.88200    1.000
    C3       C        0.76500    0.65300    0.96640    1.000
    H3       H        0.80490    0.60960    0.10580    1.000
    O10      O        0.50790    0.30260    0.33570    1.000
    O11      O        0.33010    0.24990    0.88570    1.000
    O12      O        0.15390    0.10850    0.88200    1.000
    C4       C        0.26500    0.15300    0.96640    1.000
    H4       H        0.30490    0.10960    0.10580    1.000
    Y1       Y        0.00000    0.94810    0.00000    1.000
    Y2       Y        0.50000    0.44810    0.00000    1.000
    C5       C        0.00000    0.88310    0.50000    1.000
    H5       H        0.00000    0.01340    0.50000    1.000
    C6       C        0.50000    0.38310    0.50000    1.000
    H6       H        0.50000    0.51340    0.50000    1.000
