# CIF file generated by openbabel 3.1.0, see https://openbabel.org
data_I
_chemical_name_common 'image0'
_cell_length_a 9.6116
_cell_length_b 11.2542
_cell_length_c 12.5565
_cell_angle_alpha 103.502
_cell_angle_beta 94.5298
_cell_angle_gamma 98.3272
_space_group_name_H-M_alt 'P 1'
_space_group_name_Hall 'P 1'
loop_
    _symmetry_equiv_pos_as_xyz
    x,y,z
loop_
    _atom_site_label
    _atom_site_type_symbol
    _atom_site_fract_x
    _atom_site_fract_y
    _atom_site_fract_z
    _atom_site_occupancy
    Ni1      Ni       0.19479    0.30318    0.41321    1.000
    O1       O        0.19808    0.33257    0.27708    1.000
    O2       O        0.96844    0.35424    0.28951    1.000
    O3       O        0.99837    0.45226    0.51095    1.000
    O4       O        0.85656    0.17949    0.36839    1.000
    N1       N        0.39648    0.28860    0.45222    1.000
    C1       C        0.46677    0.38180    0.55339    1.000
    C2       C        0.43340    0.16415    0.46010    1.000
    C3       C        0.46781    0.32733    0.36389    1.000
    C4       C        0.07968    0.34963    0.23488    1.000
    C5       C        0.05138    0.33694    0.11824    1.000
    C6       C        0.16209    0.32916    0.04763    1.000
    C7       C        0.13238    0.31466    0.93603    1.000
    C8       C        0.24012    0.29752    0.86439    1.000
    C9       C        0.91225    0.33924    0.07635    1.000
    C10      C        0.12087    0.50515    0.49236    1.000
    C11      C        0.10799    0.62931    0.46272    1.000
    C12      C        0.98952    0.68058    0.48637    1.000
    C13      C        0.97820    0.78859    0.45620    1.000
    C14      C        0.85292    0.83898    0.47371    1.000
    C15      C        0.22655    0.68797    0.41929    1.000
    Ni2      Ni       0.90232    0.32040    0.40886    1.000
    O5       O        0.93205    0.30007    0.55543    1.000
    O6       O        0.15854    0.27147    0.54149    1.000
    O7       O        0.08612    0.17004    0.34005    1.000
    O8       O        0.22787    0.43930    0.48854    1.000
    N2       N        0.68266    0.30244    0.47169    1.000
    C16      C        0.63141    0.39080    0.56630    1.000
    C17      C        0.59573    0.17784    0.47192    1.000
    C18      C        0.62905    0.33822    0.37350    1.000
    C19      C        0.04847    0.28038    0.59694    1.000
    C20      C        0.07406    0.29556    0.71355    1.000
    C21      C        0.96388    0.30887    0.78443    1.000
    C22      C        0.99211    0.31711    0.89517    1.000
    C23      C        0.88320    0.32954    0.96609    1.000
    C24      C        0.21105    0.28732    0.75451    1.000
    C25      C        0.96073    0.12856    0.36355    1.000
    C26      C        0.95523    0.99922    0.38907    1.000
    C27      C        0.07774    0.95509    0.37197    1.000
    C28      C        0.09364    0.84869    0.40693    1.000
    C29      C        0.21616    0.79790    0.38686    1.000
    C30      C        0.83939    0.94490    0.43713    1.000
    H1       H        0.26902    0.32702    0.07911    1.000
    H2       H        0.34696    0.29209    0.89307    1.000
    H3       H        0.82526    0.34739    0.12854    1.000
    H4       H        0.85769    0.31606    0.75387    1.000
    H5       H        0.77440    0.32719    0.93536    1.000
    H6       H        0.29656    0.27506    0.70161    1.000
    H7       H        0.90220    0.63192    0.53097    1.000
    H8       H        0.76418    0.79157    0.51793    1.000
    H9       H        0.32705    0.64502    0.41167    1.000
    H10      H        0.16538    0.00625    0.32917    1.000
    H11      H        0.30690    0.84556    0.34443    1.000
    H12      H        0.73930    0.98845    0.44463    1.000
    H13      H        0.43175    0.36886    0.63328    1.000
    H14      H        0.45701    0.47402    0.53559    1.000
    H15      H        0.38661    0.08927    0.38449    1.000
    H16      H        0.38577    0.13345    0.53287    1.000
    H17      H        0.44407    0.42326    0.35747    1.000
    H18      H        0.42357    0.25509    0.28623    1.000
    H19      H        0.68880    0.49294    0.57089    1.000
    H20      H        0.65930    0.36301    0.64425    1.000
    H21      H        0.62625    0.15151    0.55002    1.000
    H22      H        0.62178    0.10410    0.40256    1.000
    H23      H        0.66037    0.27393    0.29993    1.000
    H24      H        0.68142    0.44089    0.37511    1.000
