# CIF file generated by openbabel 3.1.0, see https://openbabel.org
data_I
_chemical_name_common 'image0'
_cell_length_a 21.892
_cell_length_b 12.609
_cell_length_c 23.263
_cell_angle_alpha 90
_cell_angle_beta 102.894
_cell_angle_gamma 90
_space_group_name_H-M_alt 'P 1'
_space_group_name_Hall 'P 1'
loop_
    _symmetry_equiv_pos_as_xyz
    x,y,z
loop_
    _atom_site_label
    _atom_site_type_symbol
    _atom_site_fract_x
    _atom_site_fract_y
    _atom_site_fract_z
    _atom_site_occupancy
    Cd1      Cd       0.09450    0.67684    0.26545    1.000
    O1       O        0.09957    0.39260    0.24380    1.000
    O2       O        0.15601    0.53360    0.27680    1.000
    O3       O        0.05068    0.83520    0.27186    1.000
    N1       N        0.31472    0.27340    0.24160    1.000
    N2       N        0.02490    0.39670    0.35420    1.000
    N3       N        0.07810    0.32560    0.66230    1.000
    N4       N        0.13570    0.69790    0.36910    1.000
    C1       C        0.14970    0.44040    0.25820    1.000
    C2       C        0.20730    0.38250    0.25260    1.000
    C3       C        0.20350    0.28990    0.22130    1.000
    H1       H        0.16450    0.26200    0.20340    1.000
    C4       C        0.25770    0.23800    0.21660    1.000
    H2       H        0.25420    0.17550    0.19490    1.000
    C5       C        0.31800    0.36380    0.27060    1.000
    H3       H        0.35750    0.39060    0.28750    1.000
    C6       C        0.26680    0.42020    0.27730    1.000
    H4       H        0.27190    0.48350    0.29830    1.000
    C7       C        0.05370    0.05550    0.27410    1.000
    H5       H        0.09060    0.02020    0.29090    1.000
    C8       C        0.05200    0.16440    0.27280    1.000
    H6       H        0.08860    0.20150    0.28850    1.000
    C9       C        0.08120    0.36540    0.38510    1.000
    H7       H        0.11330    0.35570    0.36530    1.000
    C10      C        0.09330    0.34690    0.44470    1.000
    H8       H        0.13320    0.32570    0.46450    1.000
    C11      C        0.04660    0.35970    0.47520    1.000
    C12      C        0.98920    0.39040    0.44330    1.000
    H9       H        0.95620    0.39890    0.46200    1.000
    C13      C        0.97990    0.40880    0.38410    1.000
    H10      H        0.94040    0.43070    0.36370    1.000
    C14      C        0.05850    0.34300    0.53980    1.000
    C15      C        0.11510    0.36740    0.57650    1.000
    H11      H        0.14790    0.39130    0.56050    1.000
    C16      C        0.12380    0.35690    0.63590    1.000
    H12      H        0.16310    0.37220    0.65930    1.000
    C17      C        0.02370    0.29960    0.62690    1.000
    H13      H        0.99190    0.27480    0.64400    1.000
    C18      C        0.01180    0.30720    0.56670    1.000
    H14      H        0.97270    0.28850    0.54400    1.000
    C19      C        0.16600    0.62050    0.40190    1.000
    H15      H        0.15690    0.55100    0.38950    1.000
    C20      C        0.21030    0.63720    0.45360    1.000
    H16      H        0.22990    0.57960    0.47500    1.000
    C21      C        0.22550    0.73890    0.47330    1.000
    C22      C        0.19250    0.81800    0.43940    1.000
    H17      H        0.19980    0.88830    0.45100    1.000
    C23      C        0.14880    0.79520    0.38870    1.000
    H18      H        0.12750    0.85120    0.36710    1.000
    Cd2      Cd       0.59450    0.17684    0.26545    1.000
    O4       O        0.59957    0.89260    0.24380    1.000
    O5       O        0.65601    0.03360    0.27680    1.000
    O6       O        0.55068    0.33520    0.27186    1.000
    N5       N        0.81472    0.77340    0.24160    1.000
    N6       N        0.52490    0.89670    0.35420    1.000
    N7       N        0.57810    0.82560    0.66230    1.000
    N8       N        0.63570    0.19790    0.36910    1.000
    C24      C        0.64970    0.94040    0.25820    1.000
    C25      C        0.70730    0.88250    0.25260    1.000
    C26      C        0.70350    0.78990    0.22130    1.000
    H19      H        0.66450    0.76200    0.20340    1.000
    C27      C        0.75770    0.73800    0.21660    1.000
    H20      H        0.75420    0.67550    0.19490    1.000
    C28      C        0.81800    0.86380    0.27060    1.000
    H21      H        0.85750    0.89060    0.28750    1.000
    C29      C        0.76680    0.92020    0.27730    1.000
    H22      H        0.77190    0.98350    0.29830    1.000
    C30      C        0.55370    0.55550    0.27410    1.000
    H23      H        0.59060    0.52020    0.29090    1.000
    C31      C        0.55200    0.66440    0.27280    1.000
    H24      H        0.58860    0.70150    0.28850    1.000
    C32      C        0.58120    0.86540    0.38510    1.000
    H25      H        0.61330    0.85570    0.36530    1.000
    C33      C        0.59330    0.84690    0.44470    1.000
    H26      H        0.63320    0.82570    0.46450    1.000
    C34      C        0.54660    0.85970    0.47520    1.000
    C35      C        0.48920    0.89040    0.44330    1.000
    H27      H        0.45620    0.89890    0.46200    1.000
    C36      C        0.47990    0.90880    0.38410    1.000
    H28      H        0.44040    0.93070    0.36370    1.000
    C37      C        0.55850    0.84300    0.53980    1.000
    C38      C        0.61510    0.86740    0.57650    1.000
    H29      H        0.64790    0.89130    0.56050    1.000
    C39      C        0.62380    0.85690    0.63590    1.000
    H30      H        0.66310    0.87220    0.65930    1.000
    C40      C        0.52370    0.79960    0.62690    1.000
    H31      H        0.49190    0.77480    0.64400    1.000
    C41      C        0.51180    0.80720    0.56670    1.000
    H32      H        0.47270    0.78850    0.54400    1.000
    C42      C        0.66600    0.12050    0.40190    1.000
    H33      H        0.65690    0.05100    0.38950    1.000
    C43      C        0.71030    0.13720    0.45360    1.000
    H34      H        0.72990    0.07960    0.47500    1.000
    C44      C        0.72550    0.23890    0.47330    1.000
    C45      C        0.69250    0.31800    0.43940    1.000
    H35      H        0.69980    0.38830    0.45100    1.000
    C46      C        0.64880    0.29520    0.38870    1.000
    H36      H        0.62750    0.35120    0.36710    1.000
    Cd3      Cd       0.90550    0.67684    0.23455    1.000
    O7       O        0.90043    0.39260    0.25620    1.000
    O8       O        0.84399    0.53360    0.22320    1.000
    O9       O        0.94932    0.83520    0.22814    1.000
    N9       N        0.68528    0.27340    0.25840    1.000
    N10      N        0.97510    0.39670    0.14580    1.000
    N11      N        0.92190    0.32560    0.83770    1.000
    N12      N        0.86430    0.69790    0.13090    1.000
    C47      C        0.85030    0.44040    0.24180    1.000
    C48      C        0.79270    0.38250    0.24740    1.000
    C49      C        0.79650    0.28990    0.27870    1.000
    H37      H        0.83550    0.26200    0.29660    1.000
    C50      C        0.74230    0.23800    0.28340    1.000
    H38      H        0.74580    0.17550    0.30510    1.000
    C51      C        0.68200    0.36380    0.22940    1.000
    H39      H        0.64250    0.39060    0.21250    1.000
    C52      C        0.73320    0.42020    0.22270    1.000
    H40      H        0.72810    0.48350    0.20170    1.000
    C53      C        0.94630    0.05550    0.22590    1.000
    H41      H        0.90940    0.02020    0.20910    1.000
    C54      C        0.94800    0.16440    0.22720    1.000
    H42      H        0.91140    0.20150    0.21150    1.000
    C55      C        0.91880    0.36540    0.11490    1.000
    H43      H        0.88670    0.35570    0.13470    1.000
    C56      C        0.90670    0.34690    0.05530    1.000
    H44      H        0.86680    0.32570    0.03550    1.000
    C57      C        0.95340    0.35970    0.02480    1.000
    C58      C        0.01080    0.39040    0.05670    1.000
    H45      H        0.04380    0.39890    0.03800    1.000
    C59      C        0.02010    0.40880    0.11590    1.000
    H46      H        0.05960    0.43070    0.13630    1.000
    C60      C        0.94150    0.34300    0.96020    1.000
    C61      C        0.88490    0.36740    0.92350    1.000
    H47      H        0.85210    0.39130    0.93950    1.000
    C62      C        0.87620    0.35690    0.86410    1.000
    H48      H        0.83690    0.37220    0.84070    1.000
    C63      C        0.97630    0.29960    0.87310    1.000
    H49      H        0.00810    0.27480    0.85600    1.000
    C64      C        0.98820    0.30720    0.93330    1.000
    H50      H        0.02730    0.28850    0.95600    1.000
    C65      C        0.83400    0.62050    0.09810    1.000
    H51      H        0.84310    0.55100    0.11050    1.000
    C66      C        0.78970    0.63720    0.04640    1.000
    H52      H        0.77010    0.57960    0.02500    1.000
    C67      C        0.77450    0.73890    0.02670    1.000
    C68      C        0.80750    0.81800    0.06060    1.000
    H53      H        0.80020    0.88830    0.04900    1.000
    C69      C        0.85120    0.79520    0.11130    1.000
    H54      H        0.87250    0.85120    0.13290    1.000
    Cd4      Cd       0.40550    0.17684    0.23455    1.000
    O10      O        0.40043    0.89260    0.25620    1.000
    O11      O        0.34399    0.03360    0.22320    1.000
    O12      O        0.44932    0.33520    0.22814    1.000
    N13      N        0.18528    0.77340    0.25840    1.000
    N14      N        0.47510    0.89670    0.14580    1.000
    N15      N        0.42190    0.82560    0.83770    1.000
    N16      N        0.36430    0.19790    0.13090    1.000
    C70      C        0.35030    0.94040    0.24180    1.000
    C71      C        0.29270    0.88250    0.24740    1.000
    C72      C        0.29650    0.78990    0.27870    1.000
    H55      H        0.33550    0.76200    0.29660    1.000
    C73      C        0.24230    0.73800    0.28340    1.000
    H56      H        0.24580    0.67550    0.30510    1.000
    C74      C        0.18200    0.86380    0.22940    1.000
    H57      H        0.14250    0.89060    0.21250    1.000
    C75      C        0.23320    0.92020    0.22270    1.000
    H58      H        0.22810    0.98350    0.20170    1.000
    C76      C        0.44630    0.55550    0.22590    1.000
    H59      H        0.40940    0.52020    0.20910    1.000
    C77      C        0.44800    0.66440    0.22720    1.000
    H60      H        0.41140    0.70150    0.21150    1.000
    C78      C        0.41880    0.86540    0.11490    1.000
    H61      H        0.38670    0.85570    0.13470    1.000
    C79      C        0.40670    0.84690    0.05530    1.000
    H62      H        0.36680    0.82570    0.03550    1.000
    C80      C        0.45340    0.85970    0.02480    1.000
    C81      C        0.51080    0.89040    0.05670    1.000
    H63      H        0.54380    0.89890    0.03800    1.000
    C82      C        0.52010    0.90880    0.11590    1.000
    H64      H        0.55960    0.93070    0.13630    1.000
    C83      C        0.44150    0.84300    0.96020    1.000
    C84      C        0.38490    0.86740    0.92350    1.000
    H65      H        0.35210    0.89130    0.93950    1.000
    C85      C        0.37620    0.85690    0.86410    1.000
    H66      H        0.33690    0.87220    0.84070    1.000
    C86      C        0.47630    0.79960    0.87310    1.000
    H67      H        0.50810    0.77480    0.85600    1.000
    C87      C        0.48820    0.80720    0.93330    1.000
    H68      H        0.52730    0.78850    0.95600    1.000
    C88      C        0.33400    0.12050    0.09810    1.000
    H69      H        0.34310    0.05100    0.11050    1.000
    C89      C        0.28970    0.13720    0.04640    1.000
    H70      H        0.27010    0.07960    0.02500    1.000
    C90      C        0.27450    0.23890    0.02670    1.000
    C91      C        0.30750    0.31800    0.06060    1.000
    H71      H        0.30020    0.38830    0.04900    1.000
    C92      C        0.35120    0.29520    0.11130    1.000
    H72      H        0.37250    0.35120    0.13290    1.000
    Cd5      Cd       0.90550    0.32316    0.73455    1.000
    O13      O        0.90043    0.60740    0.75620    1.000
    O14      O        0.84399    0.46640    0.72320    1.000
    O15      O        0.94932    0.16480    0.72814    1.000
    N17      N        0.68528    0.72660    0.75840    1.000
    N18      N        0.97510    0.60330    0.64580    1.000
    N19      N        0.92190    0.67440    0.33770    1.000
    N20      N        0.86430    0.30210    0.63090    1.000
    C93      C        0.85030    0.55960    0.74180    1.000
    C94      C        0.79270    0.61750    0.74740    1.000
    C95      C        0.79650    0.71010    0.77870    1.000
    H73      H        0.83550    0.73800    0.79660    1.000
    C96      C        0.74230    0.76200    0.78340    1.000
    H74      H        0.74580    0.82450    0.80510    1.000
    C97      C        0.68200    0.63620    0.72940    1.000
    H75      H        0.64250    0.60940    0.71250    1.000
    C98      C        0.73320    0.57980    0.72270    1.000
    H76      H        0.72810    0.51650    0.70170    1.000
    C99      C        0.94630    0.94450    0.72590    1.000
    H77      H        0.90940    0.97980    0.70910    1.000
    C100     C        0.94800    0.83560    0.72720    1.000
    H78      H        0.91140    0.79850    0.71150    1.000
    C101     C        0.91880    0.63460    0.61490    1.000
    H79      H        0.88670    0.64430    0.63470    1.000
    C102     C        0.90670    0.65310    0.55530    1.000
    H80      H        0.86680    0.67430    0.53550    1.000
    C103     C        0.95340    0.64030    0.52480    1.000
    C104     C        0.01080    0.60960    0.55670    1.000
    H81      H        0.04380    0.60110    0.53800    1.000
    C105     C        0.02010    0.59120    0.61590    1.000
    H82      H        0.05960    0.56930    0.63630    1.000
    C106     C        0.94150    0.65700    0.46020    1.000
    C107     C        0.88490    0.63260    0.42350    1.000
    H83      H        0.85210    0.60870    0.43950    1.000
    C108     C        0.87620    0.64310    0.36410    1.000
    H84      H        0.83690    0.62780    0.34070    1.000
    C109     C        0.97630    0.70040    0.37310    1.000
    H85      H        0.00810    0.72520    0.35600    1.000
    C110     C        0.98820    0.69280    0.43330    1.000
    H86      H        0.02730    0.71150    0.45600    1.000
    C111     C        0.83400    0.37950    0.59810    1.000
    H87      H        0.84310    0.44900    0.61050    1.000
    C112     C        0.78970    0.36280    0.54640    1.000
    H88      H        0.77010    0.42040    0.52500    1.000
    C113     C        0.77450    0.26110    0.52670    1.000
    C114     C        0.80750    0.18200    0.56060    1.000
    H89      H        0.80020    0.11170    0.54900    1.000
    C115     C        0.85120    0.20480    0.61130    1.000
    H90      H        0.87250    0.14880    0.63290    1.000
    Cd6      Cd       0.40550    0.82316    0.73455    1.000
    O16      O        0.40043    0.10740    0.75620    1.000
    O17      O        0.34399    0.96640    0.72320    1.000
    O18      O        0.44932    0.66480    0.72814    1.000
    N21      N        0.18528    0.22660    0.75840    1.000
    N22      N        0.47510    0.10330    0.64580    1.000
    N23      N        0.42190    0.17440    0.33770    1.000
    N24      N        0.36430    0.80210    0.63090    1.000
    C116     C        0.35030    0.05960    0.74180    1.000
    C117     C        0.29270    0.11750    0.74740    1.000
    C118     C        0.29650    0.21010    0.77870    1.000
    H91      H        0.33550    0.23800    0.79660    1.000
    C119     C        0.24230    0.26200    0.78340    1.000
    H92      H        0.24580    0.32450    0.80510    1.000
    C120     C        0.18200    0.13620    0.72940    1.000
    H93      H        0.14250    0.10940    0.71250    1.000
    C121     C        0.23320    0.07980    0.72270    1.000
    H94      H        0.22810    0.01650    0.70170    1.000
    C122     C        0.44630    0.44450    0.72590    1.000
    H95      H        0.40940    0.47980    0.70910    1.000
    C123     C        0.44800    0.33560    0.72720    1.000
    H96      H        0.41140    0.29850    0.71150    1.000
    C124     C        0.41880    0.13460    0.61490    1.000
    H97      H        0.38670    0.14430    0.63470    1.000
    C125     C        0.40670    0.15310    0.55530    1.000
    H98      H        0.36680    0.17430    0.53550    1.000
    C126     C        0.45340    0.14030    0.52480    1.000
    C127     C        0.51080    0.10960    0.55670    1.000
    H99      H        0.54380    0.10110    0.53800    1.000
    C128     C        0.52010    0.09120    0.61590    1.000
    H100     H        0.55960    0.06930    0.63630    1.000
    C129     C        0.44150    0.15700    0.46020    1.000
    C130     C        0.38490    0.13260    0.42350    1.000
    H101     H        0.35210    0.10870    0.43950    1.000
    C131     C        0.37620    0.14310    0.36410    1.000
    H102     H        0.33690    0.12780    0.34070    1.000
    C132     C        0.47630    0.20040    0.37310    1.000
    H103     H        0.50810    0.22520    0.35600    1.000
    C133     C        0.48820    0.19280    0.43330    1.000
    H104     H        0.52730    0.21150    0.45600    1.000
    C134     C        0.33400    0.87950    0.59810    1.000
    H105     H        0.34310    0.94900    0.61050    1.000
    C135     C        0.28970    0.86280    0.54640    1.000
    H106     H        0.27010    0.92040    0.52500    1.000
    C136     C        0.27450    0.76110    0.52670    1.000
    C137     C        0.30750    0.68200    0.56060    1.000
    H107     H        0.30020    0.61170    0.54900    1.000
    C138     C        0.35120    0.70480    0.61130    1.000
    H108     H        0.37250    0.64880    0.63290    1.000
    Cd7      Cd       0.09450    0.32316    0.76545    1.000
    O19      O        0.09957    0.60740    0.74380    1.000
    O20      O        0.15601    0.46640    0.77680    1.000
    O21      O        0.05068    0.16480    0.77186    1.000
    N25      N        0.31472    0.72660    0.74160    1.000
    N26      N        0.02490    0.60330    0.85420    1.000
    N27      N        0.07810    0.67440    0.16230    1.000
    N28      N        0.13570    0.30210    0.86910    1.000
    C139     C        0.14970    0.55960    0.75820    1.000
    C140     C        0.20730    0.61750    0.75260    1.000
    C141     C        0.20350    0.71010    0.72130    1.000
    H109     H        0.16450    0.73800    0.70340    1.000
    C142     C        0.25770    0.76200    0.71660    1.000
    H110     H        0.25420    0.82450    0.69490    1.000
    C143     C        0.31800    0.63620    0.77060    1.000
    H111     H        0.35750    0.60940    0.78750    1.000
    C144     C        0.26680    0.57980    0.77730    1.000
    H112     H        0.27190    0.51650    0.79830    1.000
    C145     C        0.05370    0.94450    0.77410    1.000
    H113     H        0.09060    0.97980    0.79090    1.000
    C146     C        0.05200    0.83560    0.77280    1.000
    H114     H        0.08860    0.79850    0.78850    1.000
    C147     C        0.08120    0.63460    0.88510    1.000
    H115     H        0.11330    0.64430    0.86530    1.000
    C148     C        0.09330    0.65310    0.94470    1.000
    H116     H        0.13320    0.67430    0.96450    1.000
    C149     C        0.04660    0.64030    0.97520    1.000
    C150     C        0.98920    0.60960    0.94330    1.000
    H117     H        0.95620    0.60110    0.96200    1.000
    C151     C        0.97990    0.59120    0.88410    1.000
    H118     H        0.94040    0.56930    0.86370    1.000
    C152     C        0.05850    0.65700    0.03980    1.000
    C153     C        0.11510    0.63260    0.07650    1.000
    H119     H        0.14790    0.60870    0.06050    1.000
    C154     C        0.12380    0.64310    0.13590    1.000
    H120     H        0.16310    0.62780    0.15930    1.000
    C155     C        0.02370    0.70040    0.12690    1.000
    H121     H        0.99190    0.72520    0.14400    1.000
    C156     C        0.01180    0.69280    0.06670    1.000
    H122     H        0.97270    0.71150    0.04400    1.000
    C157     C        0.16600    0.37950    0.90190    1.000
    H123     H        0.15690    0.44900    0.88950    1.000
    C158     C        0.21030    0.36280    0.95360    1.000
    H124     H        0.22990    0.42040    0.97500    1.000
    C159     C        0.22550    0.26110    0.97330    1.000
    C160     C        0.19250    0.18200    0.93940    1.000
    H125     H        0.19980    0.11170    0.95100    1.000
    C161     C        0.14880    0.20480    0.88870    1.000
    H126     H        0.12750    0.14880    0.86710    1.000
    Cd8      Cd       0.59450    0.82316    0.76545    1.000
    O22      O        0.59957    0.10740    0.74380    1.000
    O23      O        0.65601    0.96640    0.77680    1.000
    O24      O        0.55068    0.66480    0.77186    1.000
    N29      N        0.81472    0.22660    0.74160    1.000
    N30      N        0.52490    0.10330    0.85420    1.000
    N31      N        0.57810    0.17440    0.16230    1.000
    N32      N        0.63570    0.80210    0.86910    1.000
    C162     C        0.64970    0.05960    0.75820    1.000
    C163     C        0.70730    0.11750    0.75260    1.000
    C164     C        0.70350    0.21010    0.72130    1.000
    H127     H        0.66450    0.23800    0.70340    1.000
    C165     C        0.75770    0.26200    0.71660    1.000
    H128     H        0.75420    0.32450    0.69490    1.000
    C166     C        0.81800    0.13620    0.77060    1.000
    H129     H        0.85750    0.10940    0.78750    1.000
    C167     C        0.76680    0.07980    0.77730    1.000
    H130     H        0.77190    0.01650    0.79830    1.000
    C168     C        0.55370    0.44450    0.77410    1.000
    H131     H        0.59060    0.47980    0.79090    1.000
    C169     C        0.55200    0.33560    0.77280    1.000
    H132     H        0.58860    0.29850    0.78850    1.000
    C170     C        0.58120    0.13460    0.88510    1.000
    H133     H        0.61330    0.14430    0.86530    1.000
    C171     C        0.59330    0.15310    0.94470    1.000
    H134     H        0.63320    0.17430    0.96450    1.000
    C172     C        0.54660    0.14030    0.97520    1.000
    C173     C        0.48920    0.10960    0.94330    1.000
    H135     H        0.45620    0.10110    0.96200    1.000
    C174     C        0.47990    0.09120    0.88410    1.000
    H136     H        0.44040    0.06930    0.86370    1.000
    C175     C        0.55850    0.15700    0.03980    1.000
    C176     C        0.61510    0.13260    0.07650    1.000
    H137     H        0.64790    0.10870    0.06050    1.000
    C177     C        0.62380    0.14310    0.13590    1.000
    H138     H        0.66310    0.12780    0.15930    1.000
    C178     C        0.52370    0.20040    0.12690    1.000
    H139     H        0.49190    0.22520    0.14400    1.000
    C179     C        0.51180    0.19280    0.06670    1.000
    H140     H        0.47270    0.21150    0.04400    1.000
    C180     C        0.66600    0.87950    0.90190    1.000
    H141     H        0.65690    0.94900    0.88950    1.000
    C181     C        0.71030    0.86280    0.95360    1.000
    H142     H        0.72990    0.92040    0.97500    1.000
    C182     C        0.72550    0.76110    0.97330    1.000
    C183     C        0.69250    0.68200    0.93940    1.000
    H143     H        0.69980    0.61170    0.95100    1.000
    C184     C        0.64880    0.70480    0.88870    1.000
    H144     H        0.62750    0.64880    0.86710    1.000
    Cd9      Cd       0.00000    0.40863    0.25000    1.000
    F1       F        0.00000    0.59040    0.25000    1.000
    N33      N        0.00000    0.21990    0.25000    1.000
    C185     C        0.00000    0.88030    0.25000    1.000
    C186     C        0.00000    0.99910    0.25000    1.000
    Cd10     Cd       0.50000    0.90863    0.25000    1.000
    F2       F        0.50000    0.09040    0.25000    1.000
    N34      N        0.50000    0.71990    0.25000    1.000
    C187     C        0.50000    0.38030    0.25000    1.000
    C188     C        0.50000    0.49910    0.25000    1.000
    Cd11     Cd       0.00000    0.59137    0.75000    1.000
    F3       F        0.00000    0.40960    0.75000    1.000
    N35      N        0.00000    0.78010    0.75000    1.000
    C189     C        0.00000    0.11970    0.75000    1.000
    C190     C        0.00000    0.00090    0.75000    1.000
    Cd12     Cd       0.50000    0.09137    0.75000    1.000
    F4       F        0.50000    0.90960    0.75000    1.000
    N36      N        0.50000    0.28010    0.75000    1.000
    C191     C        0.50000    0.61970    0.75000    1.000
    C192     C        0.50000    0.50090    0.75000    1.000
