# CIF file generated by openbabel 3.1.0, see https://openbabel.org
data_I
_chemical_name_common 'image0'
_cell_length_a 8.8017
_cell_length_b 10.6674
_cell_length_c 10.9422
_cell_angle_alpha 103.157
_cell_angle_beta 108.193
_cell_angle_gamma 97.41
_space_group_name_H-M_alt 'P 1'
_space_group_name_Hall 'P 1'
loop_
    _symmetry_equiv_pos_as_xyz
    x,y,z
loop_
    _atom_site_label
    _atom_site_type_symbol
    _atom_site_fract_x
    _atom_site_fract_y
    _atom_site_fract_z
    _atom_site_occupancy
    Zn1      Zn       0.79882    0.83672    0.24555    1.000
    O1       O        0.05310    0.94310    0.35960    1.000
    O2       O        0.19860    0.09450    0.55450    1.000
    N1       N        0.54760    0.75040    0.16860    1.000
    N2       N        0.10460    0.54510    0.80340    1.000
    N3       N        0.29110    0.69670    0.02580    1.000
    N4       N        0.19150    0.78540    0.82770    1.000
    C1       C        0.07260    0.01050    0.47420    1.000
    N5       N        0.99790    0.71840    0.93850    1.000
    C2       C        0.44080    0.77350    0.06520    1.000
    H1       H        0.46670    0.83630    0.02410    1.000
    C3       C        0.28140    0.77160    0.74550    1.000
    H2       H        0.31500    0.69570    0.71300    1.000
    C4       C        0.17460    0.91130    0.84930    1.000
    H3       H        0.11910    0.94790    0.90340    1.000
    C5       C        0.31260    0.88890    0.72010    1.000
    H4       H        0.37110    0.90680    0.66620    1.000
    C6       C        0.19280    0.45290    0.81790    1.000
    H5       H        0.28860    0.46580    0.89070    1.000
    C7       C        0.99490    0.75960    0.06310    1.000
    H6       H        0.08300    0.76740    0.14040    1.000
    C8       C        0.46090    0.65270    0.19940    1.000
    H7       H        0.50310    0.61550    0.26840    1.000
    C9       C        0.76040    0.76520    0.93280    1.000
    H8       H        0.65340    0.77640    0.90140    1.000
    C10      C        0.30460    0.61990    0.11300    1.000
    H9       H        0.22080    0.55670    0.11230    1.000
    C11      C        0.97530    0.48610    0.68510    1.000
    H10      H        0.89010    0.52390    0.64590    1.000
    C12      C        0.84750    0.72410    0.85560    1.000
    H11      H        0.81180    0.70330    0.76250    1.000
    C13      C        0.99440    0.36380    0.63610    1.000
    H12      H        0.92380    0.30300    0.55660    1.000
    B1       B        0.14430    0.68570    0.89820    1.000
    N6       N        0.13210    0.34270    0.72030    1.000
    N7       N        0.85380    0.78760    0.06400    1.000
    N8       N        0.24440    0.97700    0.78610    1.000
    Zn2      Zn       0.20118    0.16328    0.75445    1.000
    O3       O        0.94690    0.05690    0.64040    1.000
    O4       O        0.80140    0.90550    0.44550    1.000
    N9       N        0.45240    0.24960    0.83140    1.000
    N10      N        0.89540    0.45490    0.19660    1.000
    N11      N        0.70890    0.30330    0.97420    1.000
    N12      N        0.80850    0.21460    0.17230    1.000
    C14      C        0.92740    0.98950    0.52580    1.000
    N13      N        0.00210    0.28160    0.06150    1.000
    C15      C        0.55920    0.22650    0.93480    1.000
    H13      H        0.53330    0.16370    0.97590    1.000
    C16      C        0.71860    0.22840    0.25450    1.000
    H14      H        0.68500    0.30430    0.28700    1.000
    C17      C        0.82540    0.08870    0.15070    1.000
    H15      H        0.88090    0.05210    0.09660    1.000
    C18      C        0.68740    0.11110    0.27990    1.000
    H16      H        0.62890    0.09320    0.33380    1.000
    C19      C        0.80720    0.54710    0.18210    1.000
    H17      H        0.71140    0.53420    0.10930    1.000
    C20      C        0.00510    0.24040    0.93690    1.000
    H18      H        0.91700    0.23260    0.85960    1.000
    C21      C        0.53910    0.34730    0.80060    1.000
    H19      H        0.49690    0.38450    0.73160    1.000
    C22      C        0.23960    0.23480    0.06720    1.000
    H20      H        0.34660    0.22360    0.09860    1.000
    C23      C        0.69540    0.38010    0.88700    1.000
    H21      H        0.77920    0.44330    0.88770    1.000
    C24      C        0.02470    0.51390    0.31490    1.000
    H22      H        0.10990    0.47610    0.35410    1.000
    C25      C        0.15250    0.27590    0.14440    1.000
    H23      H        0.18820    0.29670    0.23750    1.000
    C26      C        0.00560    0.63620    0.36390    1.000
    H24      H        0.07620    0.69700    0.44340    1.000
    B2       B        0.85570    0.31430    0.10180    1.000
    N14      N        0.86790    0.65730    0.27970    1.000
    N15      N        0.14620    0.21240    0.93600    1.000
    N16      N        0.75560    0.02300    0.21390    1.000
