# CIF file generated by openbabel 3.1.0, see https://openbabel.org
data_I
_chemical_name_common 'image0'
_cell_length_a 10.015
_cell_length_b 6.6124
_cell_length_c 12.4721
_cell_angle_alpha 90
_cell_angle_beta 109.412
_cell_angle_gamma 90
_space_group_name_H-M_alt 'P 1'
_space_group_name_Hall 'P 1'
loop_
    _symmetry_equiv_pos_as_xyz
    x,y,z
loop_
    _atom_site_label
    _atom_site_type_symbol
    _atom_site_fract_x
    _atom_site_fract_y
    _atom_site_fract_z
    _atom_site_occupancy
    N1       N        0.87510    0.91800    0.24840    1.000
    N2       N        0.93050    0.84890    0.35440    1.000
    N3       N        0.12490    0.41800    0.75160    1.000
    N4       N        0.06950    0.34890    0.64560    1.000
    N5       N        0.12490    0.08200    0.75160    1.000
    N6       N        0.06950    0.15110    0.64560    1.000
    N7       N        0.87510    0.58200    0.24840    1.000
    N8       N        0.93050    0.65110    0.35440    1.000
    Cu1      Cu       0.13580    0.75000    0.76730    1.000
    C1       C        0.39140    0.75000    0.85470    1.000
    C2       C        0.55070    0.75000    0.89980    1.000
    C3       C        0.62940    0.75000    0.82920    1.000
    H1       H        0.58160    0.75000    0.75120    1.000
    C4       C        0.77790    0.75000    0.86670    1.000
    C5       C        0.84670    0.75000    0.98480    1.000
    H2       H        0.94510    0.75000    0.01370    1.000
    C6       C        0.76910    0.75000    0.05910    1.000
    C7       C        0.62670    0.75000    0.01700    1.000
    H3       H        0.57640    0.75000    0.06770    1.000
    C8       C        0.86210    0.75000    0.79020    1.000
    C9       C        0.83880    0.75000    0.18720    1.000
    O1       O        0.32660    0.75000    0.92520    1.000
    O2       O        0.32650    0.75000    0.74840    1.000
    O3       O        0.79990    0.75000    0.68370    1.000
    O4       O        0.99640    0.75000    0.83680    1.000
    O5       O        0.00500    0.75000    0.58350    1.000
    H4       H        0.92210    0.75000    0.58790    1.000
    Cu2      Cu       0.86420    0.25000    0.23270    1.000
    C10      C        0.60860    0.25000    0.14530    1.000
    C11      C        0.44930    0.25000    0.10020    1.000
    C12      C        0.37060    0.25000    0.17080    1.000
    H5       H        0.41840    0.25000    0.24880    1.000
    C13      C        0.22210    0.25000    0.13330    1.000
    C14      C        0.15330    0.25000    0.01520    1.000
    H6       H        0.05490    0.25000    0.98630    1.000
    C15      C        0.23090    0.25000    0.94090    1.000
    C16      C        0.37330    0.25000    0.98300    1.000
    H7       H        0.42360    0.25000    0.93230    1.000
    C17      C        0.13790    0.25000    0.20980    1.000
    C18      C        0.16120    0.25000    0.81280    1.000
    O6       O        0.67340    0.25000    0.07480    1.000
    O7       O        0.67350    0.25000    0.25160    1.000
    O8       O        0.20010    0.25000    0.31630    1.000
    O9       O        0.00360    0.25000    0.16320    1.000
    O10      O        0.99500    0.25000    0.41650    1.000
    H8       H        0.07790    0.25000    0.41210    1.000
    Cu3      Cu       0.00000    0.00000    0.50000    1.000
    Cu4      Cu       0.00000    0.50000    0.50000    1.000
