# CIF file generated by openbabel 3.1.0, see https://openbabel.org
data_I
_chemical_name_common 'image0'
_cell_length_a 11.5784
_cell_length_b 15.3081
_cell_length_c 19.258
_cell_angle_alpha 70.388
_cell_angle_beta 76.659
_cell_angle_gamma 83.048
_space_group_name_H-M_alt 'P 1'
_space_group_name_Hall 'P 1'
loop_
    _symmetry_equiv_pos_as_xyz
    x,y,z
loop_
    _atom_site_label
    _atom_site_type_symbol
    _atom_site_fract_x
    _atom_site_fract_y
    _atom_site_fract_z
    _atom_site_occupancy
    C1       C        0.86420    0.69530    0.31180    1.000
    H1       H        0.79270    0.70160    0.29590    1.000
    C2       C        0.94650    0.76520    0.27310    1.000
    H2       H        0.92840    0.81650    0.23390    1.000
    C3       C        0.05420    0.75610    0.29460    1.000
    C4       C        0.07390    0.67940    0.35490    1.000
    H3       H        0.14430    0.67150    0.37210    1.000
    C5       C        0.98680    0.61400    0.38950    1.000
    H4       H        0.00260    0.56230    0.42910    1.000
    C6       C        0.14700    0.82510    0.25590    1.000
    C7       C        0.15480    0.87750    0.18040    1.000
    H5       H        0.10130    0.87010    0.15370    1.000
    C8       C        0.24430    0.94160    0.14510    1.000
    H6       H        0.25010    0.97590    0.09450    1.000
    C9       C        0.32260    0.95450    0.18330    1.000
    C10      C        0.31590    0.90190    0.25730    1.000
    H7       H        0.37150    0.90890    0.28280    1.000
    C11      C        0.22740    0.83800    0.29530    1.000
    H8       H        0.22210    0.80460    0.34610    1.000
    C12      C        0.41650    0.02330    0.14530    1.000
    C13      C        0.56230    0.91610    0.08560    1.000
    H9       H        0.61650    0.92820    0.03720    1.000
    H10      H        0.49460    0.88600    0.08360    1.000
    C14      C        0.62350    0.85220    0.14530    1.000
    H11      H        0.68520    0.88410    0.15130    1.000
    H12      H        0.65750    0.79890    0.13090    1.000
    H13      H        0.56700    0.83270    0.19200    1.000
    C15      C        0.58370    0.08340    0.07410    1.000
    H14      H        0.65810    0.08970    0.04220    1.000
    C16      C        0.42060    0.11300    0.14470    1.000
    C17      C        0.33010    0.16840    0.18100    1.000
    C18      C        0.29510    0.25730    0.14290    1.000
    H15      H        0.32980    0.28410    0.09250    1.000
    C19      C        0.20800    0.30790    0.17910    1.000
    H16      H        0.18460    0.36760    0.15210    1.000
    C20      C        0.15560    0.27080    0.25460    1.000
    C21      C        0.19250    0.18120    0.29350    1.000
    H17      H        0.15960    0.15540    0.34430    1.000
    C22      C        0.27650    0.13010    0.25820    1.000
    H18      H        0.29840    0.06990    0.28500    1.000
    C23      C        0.06720    0.32660    0.29310    1.000
    C24      C        0.98940    0.39090    0.25690    1.000
    H19      H        0.99110    0.40040    0.20640    1.000
    C25      C        0.90760    0.44210    0.29540    1.000
    H20      H        0.85850    0.48730    0.26880    1.000
    C26      C        0.97450    0.36640    0.40490    1.000
    H21      H        0.97080    0.35780    0.45550    1.000
    C27      C        0.05940    0.31460    0.36960    1.000
    H22      H        0.11080    0.27210    0.39640    1.000
    C28      C        0.57830    0.31930    0.94820    1.000
    C29      C        0.53530    0.34280    0.87660    1.000
    C30      C        0.60580    0.31640    0.81760    1.000
    H23      H        0.67640    0.28130    0.82360    1.000
    C31      C        0.56870    0.34380    0.74860    1.000
    H24      H        0.61670    0.32990    0.70740    1.000
    C32      C        0.45990    0.39180    0.74220    1.000
    C33      C        0.38660    0.41290    0.80360    1.000
    H25      H        0.31220    0.44250    0.79960    1.000
    C34      C        0.42630    0.38920    0.87090    1.000
    H26      H        0.37950    0.40460    0.91170    1.000
    C35      C        0.42170    0.42350    0.66770    1.000
    C36      C        0.75900    0.44210    0.02230    1.000
    C37      C        0.88430    0.47270    0.01080    1.000
    C38      C        0.97850    0.40680    0.01980    1.000
    H27      H        0.96370    0.34420    0.03380    1.000
    C39      C        0.90500    0.56710    0.99160    1.000
    H28      H        0.84250    0.61160    0.98660    1.000
    C40      C        0.53180    0.61220    0.82980    1.000
    C41      C        0.58360    0.59850    0.75350    1.000
    C42      C        0.68590    0.54480    0.74290    1.000
    H29      H        0.72560    0.51790    0.78240    1.000
    C43      C        0.73100    0.53000    0.67410    1.000
    H30      H        0.80080    0.49400    0.66740    1.000
    C44      C        0.66980    0.57010    0.61490    1.000
    C45      C        0.56550    0.62490    0.62590    1.000
    H31      H        0.52420    0.65060    0.58710    1.000
    C46      C        0.52380    0.64110    0.69300    1.000
    H32      H        0.45650    0.67980    0.69910    1.000
    C47      C        0.71170    0.54830    0.54250    1.000
    C48      C        0.66360    0.32290    0.51520    1.000
    C49      C        0.56600    0.25620    0.55390    1.000
    H33      H        0.57220    0.21110    0.52840    1.000
    H34      H        0.49040    0.28960    0.55280    1.000
    H35      H        0.57310    0.22530    0.60520    1.000
    Co1      Co       0.61332    0.27155    0.08228    1.000
    Co2      Co       0.76733    0.50800    0.42177    1.000
    N1       N        0.52120    0.00510    0.09950    1.000
    N2       N        0.52620    0.14910    0.10030    1.000
    N3       N        0.89670    0.42900    0.36930    1.000
    N4       N        0.88230    0.62090    0.36940    1.000
    O1       O        0.52280    0.35640    0.99831    1.000
    O2       O        0.66460    0.26280    0.96200    1.000
    O3       O        0.31160    0.44410    0.66918    1.000
    O4       O        0.50260    0.42880    0.60962    1.000
    O5       O        0.55450    0.54900    0.88621    1.000
    O6       O        0.46820    0.68660    0.82860    1.000
    O7       O        0.64440    0.57770    0.49400    1.000
    O8       O        0.80670    0.50350    0.52943    1.000
    O9       O        0.68030    0.50310    0.00380    1.000
    O10      O        0.74870    0.35610    0.05010    1.000
    O11      O        0.64070    0.40800    0.47417    1.000
    O12      O        0.76650    0.29440    0.52510    1.000
    C50      C        0.13580    0.30470    0.68820    1.000
    H36      H        0.20730    0.29840    0.70410    1.000
    C51      C        0.05350    0.23480    0.72690    1.000
    H37      H        0.07160    0.18350    0.76610    1.000
    C52      C        0.94580    0.24390    0.70540    1.000
    C53      C        0.92610    0.32060    0.64510    1.000
    H38      H        0.85570    0.32850    0.62790    1.000
    C54      C        0.01320    0.38600    0.61050    1.000
    H39      H        0.99740    0.43770    0.57090    1.000
    C55      C        0.85300    0.17490    0.74410    1.000
    C56      C        0.84520    0.12250    0.81960    1.000
    H40      H        0.89870    0.12990    0.84630    1.000
    C57      C        0.75570    0.05840    0.85490    1.000
    H41      H        0.74990    0.02410    0.90550    1.000
    C58      C        0.67740    0.04550    0.81670    1.000
    C59      C        0.68410    0.09810    0.74270    1.000
    H42      H        0.62850    0.09110    0.71720    1.000
    C60      C        0.77260    0.16200    0.70470    1.000
    H43      H        0.77790    0.19540    0.65390    1.000
    C61      C        0.58350    0.97670    0.85470    1.000
    C62      C        0.43770    0.08390    0.91440    1.000
    H44      H        0.38350    0.07180    0.96280    1.000
    H45      H        0.50540    0.11400    0.91640    1.000
    C63      C        0.37650    0.14780    0.85470    1.000
    H46      H        0.31480    0.11590    0.84870    1.000
    H47      H        0.34250    0.20110    0.86910    1.000
    H48      H        0.43300    0.16730    0.80800    1.000
    C64      C        0.41630    0.91660    0.92590    1.000
    H49      H        0.34190    0.91030    0.95780    1.000
    C65      C        0.57940    0.88700    0.85530    1.000
    C66      C        0.66990    0.83160    0.81900    1.000
    C67      C        0.70490    0.74270    0.85710    1.000
    H50      H        0.67020    0.71590    0.90750    1.000
    C68      C        0.79200    0.69210    0.82090    1.000
    H51      H        0.81540    0.63240    0.84790    1.000
    C69      C        0.84440    0.72920    0.74540    1.000
    C70      C        0.80750    0.81880    0.70650    1.000
    H52      H        0.84040    0.84460    0.65570    1.000
    C71      C        0.72350    0.86990    0.74180    1.000
    H53      H        0.70160    0.93010    0.71500    1.000
    C72      C        0.93280    0.67340    0.70690    1.000
    C73      C        0.01060    0.60910    0.74310    1.000
    H54      H        0.00890    0.59960    0.79360    1.000
    C74      C        0.09240    0.55790    0.70460    1.000
    H55      H        0.14150    0.51270    0.73120    1.000
    C75      C        0.02550    0.63360    0.59510    1.000
    H56      H        0.02920    0.64220    0.54450    1.000
    C76      C        0.94060    0.68540    0.63040    1.000
    H57      H        0.88920    0.72790    0.60360    1.000
    C77      C        0.42170    0.68070    0.05180    1.000
    C78      C        0.46470    0.65720    0.12340    1.000
    C79      C        0.39420    0.68360    0.18240    1.000
    H58      H        0.32360    0.71870    0.17640    1.000
    C80      C        0.43130    0.65620    0.25140    1.000
    H59      H        0.38330    0.67010    0.29260    1.000
    C81      C        0.54010    0.60820    0.25780    1.000
    C82      C        0.61340    0.58710    0.19640    1.000
    H60      H        0.68780    0.55750    0.20040    1.000
    C83      C        0.57370    0.61080    0.12910    1.000
    H61      H        0.62050    0.59540    0.08830    1.000
    C84      C        0.57830    0.57650    0.33230    1.000
    C85      C        0.24100    0.55790    0.97770    1.000
    C86      C        0.11570    0.52730    0.98920    1.000
    C87      C        0.02150    0.59320    0.98020    1.000
    H62      H        0.03630    0.65580    0.96620    1.000
    C88      C        0.09500    0.43290    0.00840    1.000
    H63      H        0.15750    0.38840    0.01340    1.000
    C89      C        0.46820    0.38780    0.17020    1.000
    C90      C        0.41640    0.40150    0.24650    1.000
    C91      C        0.31410    0.45520    0.25710    1.000
    H64      H        0.27440    0.48210    0.21760    1.000
    C92      C        0.26900    0.47000    0.32590    1.000
    H65      H        0.19920    0.50600    0.33260    1.000
    C93      C        0.33020    0.42990    0.38510    1.000
    C94      C        0.43450    0.37510    0.37410    1.000
    H66      H        0.47580    0.34940    0.41290    1.000
    C95      C        0.47620    0.35890    0.30700    1.000
    H67      H        0.54350    0.32020    0.30090    1.000
    C96      C        0.28830    0.45170    0.45750    1.000
    C97      C        0.33640    0.67710    0.48480    1.000
    C98      C        0.43400    0.74380    0.44610    1.000
    H68      H        0.42780    0.78890    0.47160    1.000
    H69      H        0.50960    0.71040    0.44720    1.000
    H70      H        0.42690    0.77470    0.39480    1.000
    Co3      Co       0.38668    0.72845    0.91772    1.000
    Co4      Co       0.23267    0.49200    0.57823    1.000
    N5       N        0.47880    0.99490    0.90050    1.000
    N6       N        0.47380    0.85090    0.89970    1.000
    N7       N        0.10330    0.57100    0.63070    1.000
    N8       N        0.11770    0.37910    0.63060    1.000
    O13      O        0.47720    0.64360    0.00169    1.000
    O14      O        0.33540    0.73720    0.03800    1.000
    O15      O        0.68840    0.55590    0.33082    1.000
    O16      O        0.49740    0.57120    0.39038    1.000
    O17      O        0.44550    0.45100    0.11379    1.000
    O18      O        0.53180    0.31340    0.17140    1.000
    O19      O        0.35560    0.42230    0.50600    1.000
    O20      O        0.19330    0.49650    0.47057    1.000
    O21      O        0.31970    0.49690    0.99620    1.000
    O22      O        0.25130    0.64390    0.94990    1.000
    O23      O        0.35930    0.59200    0.52583    1.000
    O24      O        0.23350    0.70560    0.47490    1.000
    Co5      Co       0.50000    0.50000    0.00000    1.000
    Co6      Co       0.50000    0.50000    0.50000    1.000
