# CIF file generated by openbabel 3.1.0, see https://openbabel.org
data_I
_chemical_name_common 'image0'
_cell_length_a 18.0156
_cell_length_b 21.7598
_cell_length_c 12.707
_cell_angle_alpha 90
_cell_angle_beta 90
_cell_angle_gamma 90
_space_group_name_H-M_alt 'P 1'
_space_group_name_Hall 'P 1'
loop_
    _symmetry_equiv_pos_as_xyz
    x,y,z
loop_
    _atom_site_label
    _atom_site_type_symbol
    _atom_site_fract_x
    _atom_site_fract_y
    _atom_site_fract_z
    _atom_site_occupancy
    Co1      Co       0.33485    0.73629    0.03861    1.000
    Co2      Co       0.17260    0.72688    0.03151    1.000
    N1       N        0.44040    0.76650    0.05240    1.000
    O1       O        0.34030    0.70970    0.88330    1.000
    O2       O        0.31400    0.76120    0.19860    1.000
    O3       O        0.21970    0.31330    0.50460    1.000
    O4       O        0.17520    0.14830    0.58150    1.000
    O5       O        0.21720    0.70090    0.89600    1.000
    O6       O        0.19000    0.75170    0.18090    1.000
    N2       N        0.56190    0.79120    0.04640    1.000
    O7       O        0.34190    0.31650    0.47950    1.000
    O8       O        0.29870    0.13780    0.58520    1.000
    N3       N        0.45840    0.80540    0.13740    1.000
    C1       C        0.50320    0.76140    0.00170    1.000
    C2       C        0.27640    0.69880    0.84440    1.000
    C3       C        0.24970    0.76310    0.23290    1.000
    C4       C        0.53100    0.81770    0.13100    1.000
    N4       N        0.50850    0.72950    0.90990    1.000
    C5       C        0.26940    0.67950    0.73090    1.000
    C6       C        0.23550    0.78230    0.34510    1.000
    N5       N        0.56680    0.85340    0.19960    1.000
    H1       H        0.46980    0.71210    0.88380    1.000
    H2       H        0.55040    0.72680    0.87800    1.000
    C7       C        0.20320    0.66340    0.69200    1.000
    C8       C        0.33090    0.67490    0.66850    1.000
    C9       C        0.29480    0.79870    0.41020    1.000
    C10      C        0.16640    0.78240    0.38620    1.000
    H3       H        0.54300    0.86980    0.25110    1.000
    H4       H        0.61350    0.85990    0.19230    1.000
    H5       H        0.16160    0.66420    0.73520    1.000
    C11      C        0.19630    0.64580    0.58960    1.000
    C12      C        0.32580    0.65680    0.56500    1.000
    H6       H        0.37720    0.68430    0.69650    1.000
    H7       H        0.34280    0.79660    0.38370    1.000
    C13      C        0.28460    0.81740    0.51060    1.000
    C14      C        0.15620    0.80120    0.49020    1.000
    H8       H        0.12610    0.77010    0.34570    1.000
    H9       H        0.14960    0.63640    0.56310    1.000
    C15      C        0.25640    0.64160    0.52530    1.000
    H10      H        0.36780    0.65470    0.52270    1.000
    H11      H        0.32460    0.82970    0.55180    1.000
    C16      C        0.21330    0.81780    0.55040    1.000
    H12      H        0.10850    0.80220    0.51810    1.000
    S1       S        0.24760    0.61212    0.39780    1.000
    S2       S        0.19990    0.84617    0.68040    1.000
    O9       O        0.17280    0.62370    0.36240    1.000
    O10      O        0.30910    0.63430    0.33690    1.000
    C17      C        0.25810    0.53190    0.41560    1.000
    O11      O        0.12420    0.83240    0.71150    1.000
    O12      O        0.26020    0.82610    0.74490    1.000
    C18      C        0.20780    0.92640    0.66240    1.000
    C19      C        0.19410    0.49820    0.43860    1.000
    C20      C        0.32660    0.50490    0.41310    1.000
    C21      C        0.27710    0.95520    0.67260    1.000
    C22      C        0.14950    0.96060    0.63540    1.000
    H13      H        0.14800    0.51720    0.44130    1.000
    C23      C        0.20110    0.43440    0.45770    1.000
    C24      C        0.33350    0.44270    0.43040    1.000
    H14      H        0.36860    0.52860    0.39970    1.000
    H15      H        0.31860    0.93250    0.69260    1.000
    C25      C        0.28330    0.01590    0.65310    1.000
    C26      C        0.15500    0.02400    0.61500    1.000
    H16      H        0.10320    0.94180    0.62990    1.000
    H17      H        0.15960    0.41040    0.47210    1.000
    C27      C        0.27130    0.40850    0.45460    1.000
    H18      H        0.37970    0.42380    0.42580    1.000
    H19      H        0.32950    0.03430    0.66060    1.000
    C28      C        0.22530    0.05110    0.62330    1.000
    H20      H        0.11360    0.04710    0.59660    1.000
    C29      C        0.27870    0.34130    0.48020    1.000
    C30      C        0.23390    0.11790    0.59610    1.000
    Co3      Co       0.66515    0.26371    0.53861    1.000
    Co4      Co       0.82740    0.27312    0.53151    1.000
    N6       N        0.55960    0.23350    0.55240    1.000
    O13      O        0.65970    0.29030    0.38330    1.000
    O14      O        0.68600    0.23880    0.69860    1.000
    O15      O        0.78030    0.68670    0.00460    1.000
    O16      O        0.82480    0.85170    0.08150    1.000
    O17      O        0.78280    0.29910    0.39600    1.000
    O18      O        0.81000    0.24830    0.68090    1.000
    N7       N        0.43810    0.20880    0.54640    1.000
    O19      O        0.65810    0.68350    0.97950    1.000
    O20      O        0.70130    0.86220    0.08520    1.000
    N8       N        0.54160    0.19460    0.63740    1.000
    C31      C        0.49680    0.23860    0.50170    1.000
    C32      C        0.72360    0.30120    0.34440    1.000
    C33      C        0.75030    0.23690    0.73290    1.000
    C34      C        0.46900    0.18230    0.63100    1.000
    N9       N        0.49150    0.27050    0.40990    1.000
    C35      C        0.73060    0.32050    0.23090    1.000
    C36      C        0.76450    0.21770    0.84510    1.000
    N10      N        0.43320    0.14660    0.69960    1.000
    H21      H        0.53020    0.28790    0.38380    1.000
    H22      H        0.44960    0.27320    0.37800    1.000
    C37      C        0.79680    0.33660    0.19200    1.000
    C38      C        0.66910    0.32510    0.16850    1.000
    C39      C        0.70520    0.20130    0.91020    1.000
    C40      C        0.83360    0.21760    0.88620    1.000
    H23      H        0.45700    0.13020    0.75110    1.000
    H24      H        0.38650    0.14010    0.69230    1.000
    H25      H        0.83840    0.33580    0.23520    1.000
    C41      C        0.80370    0.35420    0.08960    1.000
    C42      C        0.67420    0.34320    0.06500    1.000
    H26      H        0.62280    0.31570    0.19650    1.000
    H27      H        0.65720    0.20340    0.88370    1.000
    C43      C        0.71540    0.18260    0.01060    1.000
    C44      C        0.84380    0.19880    0.99020    1.000
    H28      H        0.87390    0.22990    0.84570    1.000
    H29      H        0.85040    0.36360    0.06310    1.000
    C45      C        0.74360    0.35840    0.02530    1.000
    H30      H        0.63220    0.34530    0.02270    1.000
    H31      H        0.67540    0.17030    0.05180    1.000
    C46      C        0.78670    0.18220    0.05040    1.000
    H32      H        0.89150    0.19780    0.01810    1.000
    S3       S        0.75240    0.38788    0.89780    1.000
    S4       S        0.80010    0.15383    0.18040    1.000
    O21      O        0.82720    0.37630    0.86240    1.000
    O22      O        0.69090    0.36570    0.83690    1.000
    C47      C        0.74190    0.46810    0.91560    1.000
    O23      O        0.87580    0.16760    0.21150    1.000
    O24      O        0.73980    0.17390    0.24490    1.000
    C48      C        0.79220    0.07360    0.16240    1.000
    C49      C        0.80590    0.50180    0.93860    1.000
    C50      C        0.67340    0.49510    0.91310    1.000
    C51      C        0.72290    0.04480    0.17260    1.000
    C52      C        0.85050    0.03940    0.13540    1.000
    H33      H        0.85200    0.48280    0.94130    1.000
    C53      C        0.79890    0.56560    0.95770    1.000
    C54      C        0.66650    0.55730    0.93040    1.000
    H34      H        0.63140    0.47140    0.89970    1.000
    H35      H        0.68140    0.06750    0.19260    1.000
    C55      C        0.71670    0.98410    0.15310    1.000
    C56      C        0.84500    0.97600    0.11500    1.000
    H36      H        0.89680    0.05820    0.12990    1.000
    H37      H        0.84040    0.58960    0.97210    1.000
    C57      C        0.72870    0.59150    0.95460    1.000
    H38      H        0.62030    0.57620    0.92580    1.000
    H39      H        0.67050    0.96570    0.16060    1.000
    C58      C        0.77470    0.94890    0.12330    1.000
    H40      H        0.88640    0.95290    0.09660    1.000
    C59      C        0.72130    0.65870    0.98020    1.000
    C60      C        0.76610    0.88210    0.09610    1.000
    Co5      Co       0.83485    0.76371    0.03861    1.000
    Co6      Co       0.67260    0.77312    0.03151    1.000
    N11      N        0.94040    0.73350    0.05240    1.000
    O25      O        0.84030    0.79030    0.88330    1.000
    O26      O        0.81400    0.73880    0.19860    1.000
    O27      O        0.71970    0.18670    0.50460    1.000
    O28      O        0.67520    0.35170    0.58150    1.000
    O29      O        0.71720    0.79910    0.89600    1.000
    O30      O        0.69000    0.74830    0.18090    1.000
    N12      N        0.06190    0.70880    0.04640    1.000
    O31      O        0.84190    0.18350    0.47950    1.000
    O32      O        0.79870    0.36220    0.58520    1.000
    N13      N        0.95840    0.69460    0.13740    1.000
    C61      C        0.00320    0.73860    0.00170    1.000
    C62      C        0.77640    0.80120    0.84440    1.000
    C63      C        0.74970    0.73690    0.23290    1.000
    C64      C        0.03100    0.68230    0.13100    1.000
    N14      N        0.00850    0.77050    0.90990    1.000
    C65      C        0.76940    0.82050    0.73090    1.000
    C66      C        0.73550    0.71770    0.34510    1.000
    N15      N        0.06680    0.64660    0.19960    1.000
    H41      H        0.96980    0.78790    0.88380    1.000
    H42      H        0.05040    0.77320    0.87800    1.000
    C67      C        0.70320    0.83660    0.69200    1.000
    C68      C        0.83090    0.82510    0.66850    1.000
    C69      C        0.79480    0.70130    0.41020    1.000
    C70      C        0.66640    0.71760    0.38620    1.000
    H43      H        0.04300    0.63020    0.25110    1.000
    H44      H        0.11350    0.64010    0.19230    1.000
    H45      H        0.66160    0.83580    0.73520    1.000
    C71      C        0.69630    0.85420    0.58960    1.000
    C72      C        0.82580    0.84320    0.56500    1.000
    H46      H        0.87720    0.81570    0.69650    1.000
    H47      H        0.84280    0.70340    0.38370    1.000
    C73      C        0.78460    0.68260    0.51060    1.000
    C74      C        0.65620    0.69880    0.49020    1.000
    H48      H        0.62610    0.72990    0.34570    1.000
    H49      H        0.64960    0.86360    0.56310    1.000
    C75      C        0.75640    0.85840    0.52530    1.000
    H50      H        0.86780    0.84530    0.52270    1.000
    H51      H        0.82460    0.67030    0.55180    1.000
    C76      C        0.71330    0.68220    0.55040    1.000
    H52      H        0.60850    0.69780    0.51810    1.000
    S5       S        0.74760    0.88788    0.39780    1.000
    S6       S        0.69990    0.65383    0.68040    1.000
    O33      O        0.67280    0.87630    0.36240    1.000
    O34      O        0.80910    0.86570    0.33690    1.000
    C77      C        0.75810    0.96810    0.41560    1.000
    O35      O        0.62420    0.66760    0.71150    1.000
    O36      O        0.76020    0.67390    0.74490    1.000
    C78      C        0.70780    0.57360    0.66240    1.000
    C79      C        0.69410    0.00180    0.43860    1.000
    C80      C        0.82660    0.99510    0.41310    1.000
    C81      C        0.77710    0.54480    0.67260    1.000
    C82      C        0.64950    0.53940    0.63540    1.000
    H53      H        0.64800    0.98280    0.44130    1.000
    C83      C        0.70110    0.06560    0.45770    1.000
    C84      C        0.83350    0.05730    0.43040    1.000
    H54      H        0.86860    0.97140    0.39970    1.000
    H55      H        0.81860    0.56750    0.69260    1.000
    C85      C        0.78330    0.48410    0.65310    1.000
    C86      C        0.65500    0.47600    0.61500    1.000
    H56      H        0.60320    0.55820    0.62990    1.000
    H57      H        0.65960    0.08960    0.47210    1.000
    C87      C        0.77130    0.09150    0.45460    1.000
    H58      H        0.87970    0.07620    0.42580    1.000
    H59      H        0.82950    0.46570    0.66060    1.000
    C88      C        0.72530    0.44890    0.62330    1.000
    H60      H        0.61360    0.45290    0.59660    1.000
    C89      C        0.77870    0.15870    0.48020    1.000
    C90      C        0.73390    0.38210    0.59610    1.000
    Co7      Co       0.16515    0.23629    0.53861    1.000
    Co8      Co       0.32740    0.22688    0.53151    1.000
    N16      N        0.05960    0.26650    0.55240    1.000
    O37      O        0.15970    0.20970    0.38330    1.000
    O38      O        0.18600    0.26120    0.69860    1.000
    O39      O        0.28030    0.81330    0.00460    1.000
    O40      O        0.32480    0.64830    0.08150    1.000
    O41      O        0.28280    0.20090    0.39600    1.000
    O42      O        0.31000    0.25170    0.68090    1.000
    N17      N        0.93810    0.29120    0.54640    1.000
    O43      O        0.15810    0.81650    0.97950    1.000
    O44      O        0.20130    0.63780    0.08520    1.000
    N18      N        0.04160    0.30540    0.63740    1.000
    C91      C        0.99680    0.26140    0.50170    1.000
    C92      C        0.22360    0.19880    0.34440    1.000
    C93      C        0.25030    0.26310    0.73290    1.000
    C94      C        0.96900    0.31770    0.63100    1.000
    N19      N        0.99150    0.22950    0.40990    1.000
    C95      C        0.23060    0.17950    0.23090    1.000
    C96      C        0.26450    0.28230    0.84510    1.000
    N20      N        0.93320    0.35340    0.69960    1.000
    H61      H        0.03020    0.21210    0.38380    1.000
    H62      H        0.94960    0.22680    0.37800    1.000
    C97      C        0.29680    0.16340    0.19200    1.000
    C98      C        0.16910    0.17490    0.16850    1.000
    C99      C        0.20520    0.29870    0.91020    1.000
    C100     C        0.33360    0.28240    0.88620    1.000
    H63      H        0.95700    0.36980    0.75110    1.000
    H64      H        0.88650    0.35990    0.69230    1.000
    H65      H        0.33840    0.16420    0.23520    1.000
    C101     C        0.30370    0.14580    0.08960    1.000
    C102     C        0.17420    0.15680    0.06500    1.000
    H66      H        0.12280    0.18430    0.19650    1.000
    H67      H        0.15720    0.29660    0.88370    1.000
    C103     C        0.21540    0.31740    0.01060    1.000
    C104     C        0.34380    0.30120    0.99020    1.000
    H68      H        0.37390    0.27010    0.84570    1.000
    H69      H        0.35040    0.13640    0.06310    1.000
    C105     C        0.24360    0.14160    0.02530    1.000
    H70      H        0.13220    0.15470    0.02270    1.000
    H71      H        0.17540    0.32970    0.05180    1.000
    C106     C        0.28670    0.31780    0.05040    1.000
    H72      H        0.39150    0.30220    0.01810    1.000
    S7       S        0.25240    0.11212    0.89780    1.000
    S8       S        0.30010    0.34617    0.18040    1.000
    O45      O        0.32720    0.12370    0.86240    1.000
    O46      O        0.19090    0.13430    0.83690    1.000
    C107     C        0.24190    0.03190    0.91560    1.000
    O47      O        0.37580    0.33240    0.21150    1.000
    O48      O        0.23980    0.32610    0.24490    1.000
    C108     C        0.29220    0.42640    0.16240    1.000
    C109     C        0.30590    0.99820    0.93860    1.000
    C110     C        0.17340    0.00490    0.91310    1.000
    C111     C        0.22290    0.45520    0.17260    1.000
    C112     C        0.35050    0.46060    0.13540    1.000
    H73      H        0.35200    0.01720    0.94130    1.000
    C113     C        0.29890    0.93440    0.95770    1.000
    C114     C        0.16650    0.94270    0.93040    1.000
    H74      H        0.13140    0.02860    0.89970    1.000
    H75      H        0.18140    0.43250    0.19260    1.000
    C115     C        0.21670    0.51590    0.15310    1.000
    C116     C        0.34500    0.52400    0.11500    1.000
    H76      H        0.39680    0.44180    0.12990    1.000
    H77      H        0.34040    0.91040    0.97210    1.000
    C117     C        0.22870    0.90850    0.95460    1.000
    H78      H        0.12030    0.92380    0.92580    1.000
    H79      H        0.17050    0.53430    0.16060    1.000
    C118     C        0.27470    0.55110    0.12330    1.000
    H80      H        0.38640    0.54710    0.09660    1.000
    C119     C        0.22130    0.84130    0.98020    1.000
    C120     C        0.26610    0.61790    0.09610    1.000
