# CIF file generated by openbabel 3.1.0, see https://openbabel.org
data_I
_chemical_name_common 'QONQEQ'
_cell_length_a 6.654
_cell_length_b 16.448
_cell_length_c 13.375
_cell_angle_alpha 90
_cell_angle_beta 90
_cell_angle_gamma 90
_space_group_name_H-M_alt 'P 1'
_space_group_name_Hall 'P 1'
loop_
    _symmetry_equiv_pos_as_xyz
    x,y,z
loop_
    _atom_site_label
    _atom_site_type_symbol
    _atom_site_fract_x
    _atom_site_fract_y
    _atom_site_fract_z
    _atom_site_occupancy
    O1       O        0.16735    0.17417    0.83647    1.000
    C2       C        0.81541    0.03664    0.96825    1.000
    H3       H        0.67291    0.06165    0.94464    1.000
    O4       O        0.66743    0.67392    0.33614    1.000
    C5       C        0.31543    0.53626    0.46768    1.000
    H6       H        0.17298    0.56126    0.44398    1.000
    O7       O        0.82541    0.33109    0.83651    1.000
    C8       C        0.17730    0.46815    0.96911    1.000
    H9       H        0.31980    0.44308    0.94563    1.000
    O10      O        0.32510    0.83100    0.33667    1.000
    C11      C        0.67722    0.96767    0.46974    1.000
    H12      H        0.81968    0.94247    0.44641    1.000
    O13      O        0.82513    0.67420    0.16440    1.000
    C14      C        0.17722    0.53692    0.03234    1.000
    H15      H        0.31966    0.56200    0.05592    1.000
    O16      O        0.32533    0.17411    0.66451    1.000
    C17      C        0.67730    0.03643    0.53298    1.000
    H18      H        0.81978    0.06140    0.55667    1.000
    O19      O        0.16741    0.83104    0.16436    1.000
    C20      C        0.81542    0.96785    0.03145    1.000
    H21      H        0.67296    0.94268    0.05483    1.000
    O22      O        0.66723    0.33095    0.66427    1.000
    C23      C        0.31540    0.46754    0.53097    1.000
    H24      H        0.17289    0.44240    0.55436    1.000
    O25      O        0.82533    0.83100    0.16430    1.000
    C26      C        0.17726    0.96785    0.03143    1.000
    H27      H        0.31976    0.94269    0.05478    1.000
    O28      O        0.32524    0.33093    0.66418    1.000
    C29      C        0.67724    0.46754    0.53100    1.000
    H30      H        0.81969    0.44239    0.55442    1.000
    O31      O        0.16720    0.67425    0.16437    1.000
    C32      C        0.81538    0.53676    0.03249    1.000
    H33      H        0.67290    0.56173    0.05619    1.000
    O34      O        0.66751    0.17402    0.66465    1.000
    C35      C        0.31546    0.03657    0.53284    1.000
    H36      H        0.17303    0.06166    0.55640    1.000
    O37      O        0.16744    0.33118    0.83638    1.000
    C38      C        0.81546    0.46800    0.96926    1.000
    H39      H        0.67301    0.44281    0.94591    1.000
    O40      O        0.66723    0.83094    0.33670    1.000
    C41      C        0.31538    0.96782    0.46961    1.000
    H42      H        0.17288    0.94273    0.44615    1.000
    O43      O        0.82512    0.17419    0.83656    1.000
    C44      C        0.17724    0.03664    0.96823    1.000
    H45      H        0.31967    0.06167    0.94458    1.000
    O46      O        0.32531    0.67396    0.33621    1.000
    C47      C        0.67726    0.53626    0.46770    1.000
    H48      H        0.81973    0.56125    0.44404    1.000
    Al49     Al       0.24614    0.25262    0.75041    1.000
    Al50     Al       0.74628    0.25263    0.75048    1.000
    Al51     Al       0.74603    0.75263    0.25041    1.000
    Al52     Al       0.24611    0.75261    0.25049    1.000
    O53      O        0.99621    0.25268    0.69682    1.000
    O54      O        0.49605    0.75281    0.19687    1.000
    O55      O        0.99604    0.75271    0.30409    1.000
    O56      O        0.49620    0.25278    0.80404    1.000
    C57      C        0.99630    0.07259    0.93560    1.000
    C58      C        0.99625    0.14506    0.86573    1.000
    C59      C        0.49635    0.57221    0.43504    1.000
    C60      C        0.49637    0.64475    0.36530    1.000
    C61      C        0.99642    0.43233    0.93620    1.000
    C62      C        0.99643    0.36016    0.86586    1.000
    C63      C        0.49625    0.93200    0.43667    1.000
    C64      C        0.49618    0.85994    0.36617    1.000
    C65      C        0.99625    0.57273    0.06514    1.000
    C66      C        0.99618    0.64511    0.13512    1.000
    C67      C        0.49641    0.07245    0.56556    1.000
    C68      C        0.49643    0.14491    0.63541    1.000
    C69      C        0.99636    0.93210    0.06443    1.000
    C70      C        0.99636    0.86001    0.13487    1.000
    C71      C        0.49631    0.43186    0.56408    1.000
    C72      C        0.49625    0.35989    0.63470    1.000
    H73      H        0.49601    0.75308    0.13241    1.000
    H74      H        0.49620    0.25299    0.86849    1.000
    H75      H        0.99620    0.25278    0.63237    1.000
    H76      H        0.99600    0.75284    0.36854    1.000
