# CIF file generated by openbabel 3.1.0, see https://openbabel.org
data_I
_chemical_name_common 'image0'
_cell_length_a 7.9391
_cell_length_b 9.4382
_cell_length_c 15.4815
_cell_angle_alpha 82.233
_cell_angle_beta 82.868
_cell_angle_gamma 75.513
_space_group_name_H-M_alt 'P 1'
_space_group_name_Hall 'P 1'
loop_
    _symmetry_equiv_pos_as_xyz
    x,y,z
loop_
    _atom_site_label
    _atom_site_type_symbol
    _atom_site_fract_x
    _atom_site_fract_y
    _atom_site_fract_z
    _atom_site_occupancy
    Zn1      Zn       0.08060    0.25340    0.91420    1.000
    Zn2      Zn       0.41220    0.24670    0.58240    1.000
    K1       K        0.56430    0.32050    0.93500    1.000
    O1       O        0.04190    0.34900    0.78730    1.000
    O2       O        0.86390    0.39710    0.97200    1.000
    O3       O        0.79710    0.59980    0.04180    1.000
    O4       O        0.31910    0.15200    0.84790    1.000
    O5       O        0.14620    0.09790    0.02320    1.000
    O6       O        0.08790    0.88840    0.09100    1.000
    O7       O        0.29360    0.10300    0.53620    1.000
    O8       O        0.36530    0.90080    0.46690    1.000
    O9       O        0.54590    0.40470    0.60220    1.000
    O10      O        0.17750    0.35060    0.65180    1.000
    O11      O        0.62050    0.60910    0.53520    1.000
    O12      O        0.45080    0.14360    0.71190    1.000
    C1       C        0.90200    0.49820    0.00340    1.000
    C2       C        0.16980    0.30650    0.73120    1.000
    C3       C        0.06730    0.99570    0.03280    1.000
    C4       C        0.32870    0.19090    0.76620    1.000
    C5       C        0.40270    0.00020    0.50190    1.000
    C6       C        0.54840    0.50430    0.53940    1.000
    O13      O        0.50630    0.62030    0.87810    1.000
    Zn3      Zn       0.91940    0.74660    0.08580    1.000
    Zn4      Zn       0.58780    0.75330    0.41760    1.000
    K2       K        0.43570    0.67950    0.06500    1.000
    O14      O        0.95810    0.65100    0.21270    1.000
    O15      O        0.13610    0.60290    0.02800    1.000
    O16      O        0.20290    0.40020    0.95820    1.000
    O17      O        0.68090    0.84800    0.15210    1.000
    O18      O        0.85380    0.90210    0.97680    1.000
    O19      O        0.91210    0.11160    0.90900    1.000
    O20      O        0.70640    0.89700    0.46380    1.000
    O21      O        0.63470    0.09920    0.53310    1.000
    O22      O        0.45410    0.59530    0.39780    1.000
    O23      O        0.82250    0.64940    0.34820    1.000
    O24      O        0.37950    0.39090    0.46480    1.000
    O25      O        0.54920    0.85640    0.28810    1.000
    C7       C        0.09800    0.50180    0.99660    1.000
    C8       C        0.83020    0.69350    0.26880    1.000
    C9       C        0.93270    0.00430    0.96720    1.000
    C10      C        0.67130    0.80910    0.23380    1.000
    C11      C        0.59730    0.99980    0.49810    1.000
    C12      C        0.45160    0.49570    0.46060    1.000
    O26      O        0.49370    0.37970    0.12190    1.000
