# CIF file generated by openbabel 3.1.0, see https://openbabel.org
data_I
_chemical_name_common 'image0'
_cell_length_a 24.7394
_cell_length_b 38.269
_cell_length_c 5.3487
_cell_angle_alpha 90
_cell_angle_beta 90
_cell_angle_gamma 90
_space_group_name_H-M_alt 'P 1'
_space_group_name_Hall 'P 1'
loop_
    _symmetry_equiv_pos_as_xyz
    x,y,z
loop_
    _atom_site_label
    _atom_site_type_symbol
    _atom_site_fract_x
    _atom_site_fract_y
    _atom_site_fract_z
    _atom_site_occupancy
    Ag1      Ag       0.96009    0.23145    0.43953    1.000
    N1       N        0.00704    0.19663    0.68260    1.000
    N2       N        0.03696    0.20900    0.88320    1.000
    N3       N        0.04714    0.15253    0.85860    1.000
    N4       N        0.06315    0.11744    0.88090    1.000
    N5       N        0.15914    0.03245    0.34710    1.000
    C1       C        0.01405    0.16259    0.67170    1.000
    H1       H        0.99860    0.14780    0.55360    1.000
    C2       C        0.06124    0.18211    0.98580    1.000
    H2       H        0.08430    0.18300    0.12290    1.000
    C3       C        0.09493    0.11041    0.05800    1.000
    H3       H        0.10720    0.12780    0.16530    1.000
    C4       C        0.11208    0.07354    0.09010    1.000
    C5       C        0.09498    0.04736    0.93310    1.000
    H4       H        0.07340    0.05230    0.79520    1.000
    C6       C        0.11066    0.01332    0.98490    1.000
    H5       H        0.10010    0.99510    0.88080    1.000
    C7       C        0.14214    0.00684    0.19350    1.000
    H6       H        0.15190    0.98390    0.22890    1.000
    C8       C        0.14407    0.06517    0.29340    1.000
    H7       H        0.15560    0.08310    0.39760    1.000
    Ag2      Ag       0.96009    0.73145    0.93953    1.000
    N6       N        0.00704    0.69663    0.18260    1.000
    N7       N        0.03696    0.70900    0.38320    1.000
    N8       N        0.04714    0.65253    0.35860    1.000
    N9       N        0.06315    0.61744    0.38090    1.000
    N10      N        0.15914    0.53245    0.84710    1.000
    C9       C        0.01405    0.66259    0.17170    1.000
    H8       H        0.99860    0.64780    0.05360    1.000
    C10      C        0.06124    0.68211    0.48580    1.000
    H9       H        0.08430    0.68300    0.62290    1.000
    C11      C        0.09493    0.61041    0.55800    1.000
    H10      H        0.10720    0.62780    0.66530    1.000
    C12      C        0.11208    0.57354    0.59010    1.000
    C13      C        0.09498    0.54736    0.43310    1.000
    H11      H        0.07340    0.55230    0.29520    1.000
    C14      C        0.11066    0.51332    0.48490    1.000
    H12      H        0.10010    0.49510    0.38080    1.000
    C15      C        0.14214    0.50684    0.69350    1.000
    H13      H        0.15190    0.48390    0.72890    1.000
    C16      C        0.14407    0.56517    0.79340    1.000
    H14      H        0.15560    0.58310    0.89760    1.000
    Ag3      Ag       0.46009    0.23145    0.93953    1.000
    N11      N        0.50704    0.19663    0.18260    1.000
    N12      N        0.53696    0.20900    0.38320    1.000
    N13      N        0.54714    0.15253    0.35860    1.000
    N14      N        0.56315    0.11744    0.38090    1.000
    N15      N        0.65914    0.03245    0.84710    1.000
    C17      C        0.51405    0.16259    0.17170    1.000
    H15      H        0.49860    0.14780    0.05360    1.000
    C18      C        0.56124    0.18211    0.48580    1.000
    H16      H        0.58430    0.18300    0.62290    1.000
    C19      C        0.59493    0.11041    0.55800    1.000
    H17      H        0.60720    0.12780    0.66530    1.000
    C20      C        0.61208    0.07354    0.59010    1.000
    C21      C        0.59498    0.04736    0.43310    1.000
    H18      H        0.57340    0.05230    0.29520    1.000
    C22      C        0.61066    0.01332    0.48490    1.000
    H19      H        0.60010    0.99510    0.38080    1.000
    C23      C        0.64214    0.00684    0.69350    1.000
    H20      H        0.65190    0.98390    0.72890    1.000
    C24      C        0.64407    0.06517    0.79340    1.000
    H21      H        0.65560    0.08310    0.89760    1.000
    Ag4      Ag       0.46009    0.73145    0.43953    1.000
    N16      N        0.50704    0.69663    0.68260    1.000
    N17      N        0.53696    0.70900    0.88320    1.000
    N18      N        0.54714    0.65253    0.85860    1.000
    N19      N        0.56315    0.61744    0.88090    1.000
    N20      N        0.65914    0.53245    0.34710    1.000
    C25      C        0.51405    0.66259    0.67170    1.000
    H22      H        0.49860    0.64780    0.55360    1.000
    C26      C        0.56124    0.68211    0.98580    1.000
    H23      H        0.58430    0.68300    0.12290    1.000
    C27      C        0.59493    0.61041    0.05800    1.000
    H24      H        0.60720    0.62780    0.16530    1.000
    C28      C        0.61208    0.57354    0.09010    1.000
    C29      C        0.59498    0.54736    0.93310    1.000
    H25      H        0.57340    0.55230    0.79520    1.000
    C30      C        0.61066    0.51332    0.98490    1.000
    H26      H        0.60010    0.49510    0.88080    1.000
    C31      C        0.64214    0.50684    0.19350    1.000
    H27      H        0.65190    0.48390    0.22890    1.000
    C32      C        0.64407    0.56517    0.29340    1.000
    H28      H        0.65560    0.58310    0.39760    1.000
    Ag5      Ag       0.03991    0.76855    0.43953    1.000
    N21      N        0.99296    0.80337    0.68260    1.000
    N22      N        0.96304    0.79100    0.88320    1.000
    N23      N        0.95286    0.84747    0.85860    1.000
    N24      N        0.93685    0.88256    0.88090    1.000
    N25      N        0.84086    0.96755    0.34710    1.000
    C33      C        0.98595    0.83741    0.67170    1.000
    H29      H        0.00140    0.85220    0.55360    1.000
    C34      C        0.93876    0.81789    0.98580    1.000
    H30      H        0.91570    0.81700    0.12290    1.000
    C35      C        0.90507    0.88959    0.05800    1.000
    H31      H        0.89280    0.87220    0.16530    1.000
    C36      C        0.88792    0.92646    0.09010    1.000
    C37      C        0.90502    0.95264    0.93310    1.000
    H32      H        0.92660    0.94770    0.79520    1.000
    C38      C        0.88934    0.98668    0.98490    1.000
    H33      H        0.89990    0.00490    0.88080    1.000
    C39      C        0.85786    0.99316    0.19350    1.000
    H34      H        0.84810    0.01610    0.22890    1.000
    C40      C        0.85593    0.93483    0.29340    1.000
    H35      H        0.84440    0.91690    0.39760    1.000
    Ag6      Ag       0.03991    0.26855    0.93953    1.000
    N26      N        0.99296    0.30337    0.18260    1.000
    N27      N        0.96304    0.29100    0.38320    1.000
    N28      N        0.95286    0.34747    0.35860    1.000
    N29      N        0.93685    0.38256    0.38090    1.000
    N30      N        0.84086    0.46755    0.84710    1.000
    C41      C        0.98595    0.33741    0.17170    1.000
    H36      H        0.00140    0.35220    0.05360    1.000
    C42      C        0.93876    0.31789    0.48580    1.000
    H37      H        0.91570    0.31700    0.62290    1.000
    C43      C        0.90507    0.38959    0.55800    1.000
    H38      H        0.89280    0.37220    0.66530    1.000
    C44      C        0.88792    0.42646    0.59010    1.000
    C45      C        0.90502    0.45264    0.43310    1.000
    H39      H        0.92660    0.44770    0.29520    1.000
    C46      C        0.88934    0.48668    0.48490    1.000
    H40      H        0.89990    0.50490    0.38080    1.000
    C47      C        0.85786    0.49316    0.69350    1.000
    H41      H        0.84810    0.51610    0.72890    1.000
    C48      C        0.85593    0.43483    0.79340    1.000
    H42      H        0.84440    0.41690    0.89760    1.000
    Ag7      Ag       0.53991    0.76855    0.93953    1.000
    N31      N        0.49296    0.80337    0.18260    1.000
    N32      N        0.46304    0.79100    0.38320    1.000
    N33      N        0.45286    0.84747    0.35860    1.000
    N34      N        0.43685    0.88256    0.38090    1.000
    N35      N        0.34086    0.96755    0.84710    1.000
    C49      C        0.48595    0.83741    0.17170    1.000
    H43      H        0.50140    0.85220    0.05360    1.000
    C50      C        0.43876    0.81789    0.48580    1.000
    H44      H        0.41570    0.81700    0.62290    1.000
    C51      C        0.40507    0.88959    0.55800    1.000
    H45      H        0.39280    0.87220    0.66530    1.000
    C52      C        0.38792    0.92646    0.59010    1.000
    C53      C        0.40502    0.95264    0.43310    1.000
    H46      H        0.42660    0.94770    0.29520    1.000
    C54      C        0.38934    0.98668    0.48490    1.000
    H47      H        0.39990    0.00490    0.38080    1.000
    C55      C        0.35786    0.99316    0.69350    1.000
    H48      H        0.34810    0.01610    0.72890    1.000
    C56      C        0.35593    0.93483    0.79340    1.000
    H49      H        0.34440    0.91690    0.89760    1.000
    Ag8      Ag       0.53991    0.26855    0.43953    1.000
    N36      N        0.49296    0.30337    0.68260    1.000
    N37      N        0.46304    0.29100    0.88320    1.000
    N38      N        0.45286    0.34747    0.85860    1.000
    N39      N        0.43685    0.38256    0.88090    1.000
    N40      N        0.34086    0.46755    0.34710    1.000
    C57      C        0.48595    0.33741    0.67170    1.000
    H50      H        0.50140    0.35220    0.55360    1.000
    C58      C        0.43876    0.31789    0.98580    1.000
    H51      H        0.41570    0.31700    0.12290    1.000
    C59      C        0.40507    0.38959    0.05800    1.000
    H52      H        0.39280    0.37220    0.16530    1.000
    C60      C        0.38792    0.42646    0.09010    1.000
    C61      C        0.40502    0.45264    0.93310    1.000
    H53      H        0.42660    0.44770    0.79520    1.000
    C62      C        0.38934    0.48668    0.98490    1.000
    H54      H        0.39990    0.50490    0.88080    1.000
    C63      C        0.35786    0.49316    0.19350    1.000
    H55      H        0.34810    0.51610    0.22890    1.000
    C64      C        0.35593    0.43483    0.29340    1.000
    H56      H        0.34440    0.41690    0.39760    1.000
    Ag9      Ag       0.21009    0.01855    0.68953    1.000
    N41      N        0.25704    0.05337    0.93260    1.000
    N42      N        0.28696    0.04100    0.13320    1.000
    N43      N        0.29714    0.09747    0.10860    1.000
    N44      N        0.31315    0.13256    0.13090    1.000
    N45      N        0.40914    0.21755    0.59710    1.000
    C65      C        0.26405    0.08741    0.92170    1.000
    H57      H        0.24860    0.10220    0.80360    1.000
    C66      C        0.31124    0.06789    0.23580    1.000
    H58      H        0.33430    0.06700    0.37290    1.000
    C67      C        0.34493    0.13959    0.30800    1.000
    H59      H        0.35720    0.12220    0.41530    1.000
    C68      C        0.36208    0.17646    0.34010    1.000
    C69      C        0.34498    0.20264    0.18310    1.000
    H60      H        0.32340    0.19770    0.04520    1.000
    C70      C        0.36066    0.23668    0.23490    1.000
    H61      H        0.35010    0.25490    0.13080    1.000
    C71      C        0.39214    0.24316    0.44350    1.000
    H62      H        0.40190    0.26610    0.47890    1.000
    C72      C        0.39407    0.18483    0.54340    1.000
    H63      H        0.40560    0.16690    0.64760    1.000
    Ag10     Ag       0.21009    0.51855    0.18953    1.000
    N46      N        0.25704    0.55337    0.43260    1.000
    N47      N        0.28696    0.54100    0.63320    1.000
    N48      N        0.29714    0.59747    0.60860    1.000
    N49      N        0.31315    0.63256    0.63090    1.000
    N50      N        0.40914    0.71755    0.09710    1.000
    C73      C        0.26405    0.58741    0.42170    1.000
    H64      H        0.24860    0.60220    0.30360    1.000
    C74      C        0.31124    0.56789    0.73580    1.000
    H65      H        0.33430    0.56700    0.87290    1.000
    C75      C        0.34493    0.63959    0.80800    1.000
    H66      H        0.35720    0.62220    0.91530    1.000
    C76      C        0.36208    0.67646    0.84010    1.000
    C77      C        0.34498    0.70264    0.68310    1.000
    H67      H        0.32340    0.69770    0.54520    1.000
    C78      C        0.36066    0.73668    0.73490    1.000
    H68      H        0.35010    0.75490    0.63080    1.000
    C79      C        0.39214    0.74316    0.94350    1.000
    H69      H        0.40190    0.76610    0.97890    1.000
    C80      C        0.39407    0.68483    0.04340    1.000
    H70      H        0.40560    0.66690    0.14760    1.000
    Ag11     Ag       0.71009    0.01855    0.18953    1.000
    N51      N        0.75704    0.05337    0.43260    1.000
    N52      N        0.78696    0.04100    0.63320    1.000
    N53      N        0.79714    0.09747    0.60860    1.000
    N54      N        0.81315    0.13256    0.63090    1.000
    N55      N        0.90914    0.21755    0.09710    1.000
    C81      C        0.76405    0.08741    0.42170    1.000
    H71      H        0.74860    0.10220    0.30360    1.000
    C82      C        0.81124    0.06789    0.73580    1.000
    H72      H        0.83430    0.06700    0.87290    1.000
    C83      C        0.84493    0.13959    0.80800    1.000
    H73      H        0.85720    0.12220    0.91530    1.000
    C84      C        0.86208    0.17646    0.84010    1.000
    C85      C        0.84498    0.20264    0.68310    1.000
    H74      H        0.82340    0.19770    0.54520    1.000
    C86      C        0.86066    0.23668    0.73490    1.000
    H75      H        0.85010    0.25490    0.63080    1.000
    C87      C        0.89214    0.24316    0.94350    1.000
    H76      H        0.90190    0.26610    0.97890    1.000
    C88      C        0.89407    0.18483    0.04340    1.000
    H77      H        0.90560    0.16690    0.14760    1.000
    Ag12     Ag       0.71009    0.51855    0.68953    1.000
    N56      N        0.75704    0.55337    0.93260    1.000
    N57      N        0.78696    0.54100    0.13320    1.000
    N58      N        0.79714    0.59747    0.10860    1.000
    N59      N        0.81315    0.63256    0.13090    1.000
    N60      N        0.90914    0.71755    0.59710    1.000
    C89      C        0.76405    0.58741    0.92170    1.000
    H78      H        0.74860    0.60220    0.80360    1.000
    C90      C        0.81124    0.56789    0.23580    1.000
    H79      H        0.83430    0.56700    0.37290    1.000
    C91      C        0.84493    0.63959    0.30800    1.000
    H80      H        0.85720    0.62220    0.41530    1.000
    C92      C        0.86208    0.67646    0.34010    1.000
    C93      C        0.84498    0.70264    0.18310    1.000
    H81      H        0.82340    0.69770    0.04520    1.000
    C94      C        0.86066    0.73668    0.23490    1.000
    H82      H        0.85010    0.75490    0.13080    1.000
    C95      C        0.89214    0.74316    0.44350    1.000
    H83      H        0.90190    0.76610    0.47890    1.000
    C96      C        0.89407    0.68483    0.54340    1.000
    H84      H        0.90560    0.66690    0.64760    1.000
    Ag13     Ag       0.28991    0.48145    0.68953    1.000
    N61      N        0.24296    0.44663    0.93260    1.000
    N62      N        0.21304    0.45900    0.13320    1.000
    N63      N        0.20286    0.40253    0.10860    1.000
    N64      N        0.18685    0.36744    0.13090    1.000
    N65      N        0.09086    0.28245    0.59710    1.000
    C97      C        0.23595    0.41259    0.92170    1.000
    H85      H        0.25140    0.39780    0.80360    1.000
    C98      C        0.18876    0.43211    0.23580    1.000
    H86      H        0.16570    0.43300    0.37290    1.000
    C99      C        0.15507    0.36041    0.30800    1.000
    H87      H        0.14280    0.37780    0.41530    1.000
    C100     C        0.13792    0.32354    0.34010    1.000
    C101     C        0.15502    0.29736    0.18310    1.000
    H88      H        0.17660    0.30230    0.04520    1.000
    C102     C        0.13934    0.26332    0.23490    1.000
    H89      H        0.14990    0.24510    0.13080    1.000
    C103     C        0.10786    0.25684    0.44350    1.000
    H90      H        0.09810    0.23390    0.47890    1.000
    C104     C        0.10593    0.31517    0.54340    1.000
    H91      H        0.09440    0.33310    0.64760    1.000
    Ag14     Ag       0.28991    0.98145    0.18953    1.000
    N66      N        0.24296    0.94663    0.43260    1.000
    N67      N        0.21304    0.95900    0.63320    1.000
    N68      N        0.20286    0.90253    0.60860    1.000
    N69      N        0.18685    0.86744    0.63090    1.000
    N70      N        0.09086    0.78245    0.09710    1.000
    C105     C        0.23595    0.91259    0.42170    1.000
    H92      H        0.25140    0.89780    0.30360    1.000
    C106     C        0.18876    0.93211    0.73580    1.000
    H93      H        0.16570    0.93300    0.87290    1.000
    C107     C        0.15507    0.86041    0.80800    1.000
    H94      H        0.14280    0.87780    0.91530    1.000
    C108     C        0.13792    0.82354    0.84010    1.000
    C109     C        0.15502    0.79736    0.68310    1.000
    H95      H        0.17660    0.80230    0.54520    1.000
    C110     C        0.13934    0.76332    0.73490    1.000
    H96      H        0.14990    0.74510    0.63080    1.000
    C111     C        0.10786    0.75684    0.94350    1.000
    H97      H        0.09810    0.73390    0.97890    1.000
    C112     C        0.10593    0.81517    0.04340    1.000
    H98      H        0.09440    0.83310    0.14760    1.000
    Ag15     Ag       0.78991    0.48145    0.18953    1.000
    N71      N        0.74296    0.44663    0.43260    1.000
    N72      N        0.71304    0.45900    0.63320    1.000
    N73      N        0.70286    0.40253    0.60860    1.000
    N74      N        0.68685    0.36744    0.63090    1.000
    N75      N        0.59086    0.28245    0.09710    1.000
    C113     C        0.73595    0.41259    0.42170    1.000
    H99      H        0.75140    0.39780    0.30360    1.000
    C114     C        0.68876    0.43211    0.73580    1.000
    H100     H        0.66570    0.43300    0.87290    1.000
    C115     C        0.65507    0.36041    0.80800    1.000
    H101     H        0.64280    0.37780    0.91530    1.000
    C116     C        0.63792    0.32354    0.84010    1.000
    C117     C        0.65502    0.29736    0.68310    1.000
    H102     H        0.67660    0.30230    0.54520    1.000
    C118     C        0.63934    0.26332    0.73490    1.000
    H103     H        0.64990    0.24510    0.63080    1.000
    C119     C        0.60786    0.25684    0.94350    1.000
    H104     H        0.59810    0.23390    0.97890    1.000
    C120     C        0.60593    0.31517    0.04340    1.000
    H105     H        0.59440    0.33310    0.14760    1.000
    Ag16     Ag       0.78991    0.98145    0.68953    1.000
    N76      N        0.74296    0.94663    0.93260    1.000
    N77      N        0.71304    0.95900    0.13320    1.000
    N78      N        0.70286    0.90253    0.10860    1.000
    N79      N        0.68685    0.86744    0.13090    1.000
    N80      N        0.59086    0.78245    0.59710    1.000
    C121     C        0.73595    0.91259    0.92170    1.000
    H106     H        0.75140    0.89780    0.80360    1.000
    C122     C        0.68876    0.93211    0.23580    1.000
    H107     H        0.66570    0.93300    0.37290    1.000
    C123     C        0.65507    0.86041    0.30800    1.000
    H108     H        0.64280    0.87780    0.41530    1.000
    C124     C        0.63792    0.82354    0.34010    1.000
    C125     C        0.65502    0.79736    0.18310    1.000
    H109     H        0.67660    0.80230    0.04520    1.000
    C126     C        0.63934    0.76332    0.23490    1.000
    H110     H        0.64990    0.74510    0.13080    1.000
    C127     C        0.60786    0.75684    0.44350    1.000
    H111     H        0.59810    0.73390    0.47890    1.000
    C128     C        0.60593    0.81517    0.54340    1.000
    H112     H        0.59440    0.83310    0.64760    1.000
