# CIF file generated by openbabel 3.1.0, see https://openbabel.org
data_I
_chemical_name_common 'image0'
_cell_length_a 17.221
_cell_length_b 17.221
_cell_length_c 40.9649
_cell_angle_alpha 90
_cell_angle_beta 90
_cell_angle_gamma 90
_space_group_name_H-M_alt 'P 1'
_space_group_name_Hall 'P 1'
loop_
    _symmetry_equiv_pos_as_xyz
    x,y,z
loop_
    _atom_site_label
    _atom_site_type_symbol
    _atom_site_fract_x
    _atom_site_fract_y
    _atom_site_fract_z
    _atom_site_occupancy
    N1       N        0.93910    0.81020    0.12971    1.000
    C1       C        0.86140    0.81620    0.13070    1.000
    H1       H        0.83520    0.79160    0.14770    1.000
    C2       C        0.81870    0.85620    0.10840    1.000
    H2       H        0.76500    0.85850    0.11040    1.000
    C3       C        0.85560    0.89350    0.08261    1.000
    C4       C        0.93550    0.89030    0.08180    1.000
    H3       H        0.96250    0.91690    0.06560    1.000
    C5       C        0.97590    0.84830    0.10486    1.000
    H4       H        0.02970    0.84570    0.10350    1.000
    C6       C        0.80820    0.93950    0.05750    1.000
    H5       H        0.78060    0.98060    0.06880    1.000
    H6       H        0.84370    0.96360    0.04220    1.000
    C7       C        0.75020    0.89150    0.03860    1.000
    H7       H        0.71480    0.86660    0.05370    1.000
    H8       H        0.77740    0.85110    0.02670    1.000
    C8       C        0.70390    0.94050    0.01470    1.000
    H9       H        0.67120    0.97590    0.02690    1.000
    H10      H        0.73970    0.97140    0.00180    1.000
    N2       N        0.56300    0.80640    0.94887    1.000
    C9       C        0.64090    0.80400    0.94770    1.000
    H11      H        0.66460    0.77270    0.93210    1.000
    C10      C        0.68730    0.84650    0.96890    1.000
    H12      H        0.74110    0.84300    0.96740    1.000
    C11      C        0.65400    0.89370    0.99210    1.000
    C12      C        0.57360    0.89510    0.99330    1.000
    H13      H        0.54850    0.92660    0.00850    1.000
    C13      C        0.53040    0.84960    0.97200    1.000
    H14      H        0.47660    0.84930    0.97390    1.000
    N3       N        0.43910    0.31020    0.62971    1.000
    C14      C        0.36140    0.31620    0.63070    1.000
    H15      H        0.33520    0.29160    0.64770    1.000
    C15      C        0.31870    0.35620    0.60840    1.000
    H16      H        0.26500    0.35850    0.61040    1.000
    C16      C        0.35560    0.39350    0.58261    1.000
    C17      C        0.43550    0.39030    0.58180    1.000
    H17      H        0.46250    0.41690    0.56560    1.000
    C18      C        0.47590    0.34830    0.60486    1.000
    H18      H        0.52970    0.34570    0.60350    1.000
    C19      C        0.30820    0.43950    0.55750    1.000
    H19      H        0.28060    0.48060    0.56880    1.000
    H20      H        0.34370    0.46360    0.54220    1.000
    C20      C        0.25020    0.39150    0.53860    1.000
    H21      H        0.21480    0.36660    0.55370    1.000
    H22      H        0.27740    0.35110    0.52670    1.000
    C21      C        0.20390    0.44050    0.51470    1.000
    H23      H        0.17120    0.47590    0.52690    1.000
    H24      H        0.23970    0.47140    0.50180    1.000
    N4       N        0.06300    0.30640    0.44887    1.000
    C22      C        0.14090    0.30400    0.44770    1.000
    H25      H        0.16460    0.27270    0.43210    1.000
    C23      C        0.18730    0.34650    0.46890    1.000
    H26      H        0.24110    0.34300    0.46740    1.000
    C24      C        0.15400    0.39370    0.49210    1.000
    C25      C        0.07360    0.39510    0.49330    1.000
    H27      H        0.04850    0.42660    0.50850    1.000
    C26      C        0.03040    0.34960    0.47200    1.000
    H28      H        0.97660    0.34930    0.47390    1.000
    N5       N        0.56090    0.18980    0.62971    1.000
    C27      C        0.63860    0.18380    0.63070    1.000
    H29      H        0.66480    0.20840    0.64770    1.000
    C28      C        0.68130    0.14380    0.60840    1.000
    H30      H        0.73500    0.14150    0.61040    1.000
    C29      C        0.64440    0.10650    0.58261    1.000
    C30      C        0.56450    0.10970    0.58180    1.000
    H31      H        0.53750    0.08310    0.56560    1.000
    C31      C        0.52410    0.15170    0.60486    1.000
    H32      H        0.47030    0.15430    0.60350    1.000
    C32      C        0.69180    0.06050    0.55750    1.000
    H33      H        0.71940    0.01940    0.56880    1.000
    H34      H        0.65630    0.03640    0.54220    1.000
    C33      C        0.74980    0.10850    0.53860    1.000
    H35      H        0.78520    0.13340    0.55370    1.000
    H36      H        0.72260    0.14890    0.52670    1.000
    C34      C        0.79610    0.05950    0.51470    1.000
    H37      H        0.82880    0.02410    0.52690    1.000
    H38      H        0.76030    0.02860    0.50180    1.000
    N6       N        0.93700    0.19360    0.44887    1.000
    C35      C        0.85910    0.19600    0.44770    1.000
    H39      H        0.83540    0.22730    0.43210    1.000
    C36      C        0.81270    0.15350    0.46890    1.000
    H40      H        0.75890    0.15700    0.46740    1.000
    C37      C        0.84600    0.10630    0.49210    1.000
    C38      C        0.92640    0.10490    0.49330    1.000
    H41      H        0.95150    0.07340    0.50850    1.000
    C39      C        0.96960    0.15040    0.47200    1.000
    H42      H        0.02340    0.15070    0.47390    1.000
    N7       N        0.06090    0.68980    0.12971    1.000
    C40      C        0.13860    0.68380    0.13070    1.000
    H43      H        0.16480    0.70840    0.14770    1.000
    C41      C        0.18130    0.64380    0.10840    1.000
    H44      H        0.23500    0.64150    0.11040    1.000
    C42      C        0.14440    0.60650    0.08261    1.000
    C43      C        0.06450    0.60970    0.08180    1.000
    H45      H        0.03750    0.58310    0.06560    1.000
    C44      C        0.02410    0.65170    0.10486    1.000
    H46      H        0.97030    0.65430    0.10350    1.000
    C45      C        0.19180    0.56050    0.05750    1.000
    H47      H        0.21940    0.51940    0.06880    1.000
    H48      H        0.15630    0.53640    0.04220    1.000
    C46      C        0.24980    0.60850    0.03860    1.000
    H49      H        0.28520    0.63340    0.05370    1.000
    H50      H        0.22260    0.64890    0.02670    1.000
    C47      C        0.29610    0.55950    0.01470    1.000
    H51      H        0.32880    0.52410    0.02690    1.000
    H52      H        0.26030    0.52860    0.00180    1.000
    N8       N        0.43700    0.69360    0.94887    1.000
    C48      C        0.35910    0.69600    0.94770    1.000
    H53      H        0.33540    0.72730    0.93210    1.000
    C49      C        0.31270    0.65350    0.96890    1.000
    H54      H        0.25890    0.65700    0.96740    1.000
    C50      C        0.34600    0.60630    0.99210    1.000
    C51      C        0.42640    0.60490    0.99330    1.000
    H55      H        0.45150    0.57340    0.00850    1.000
    C52      C        0.46960    0.65040    0.97200    1.000
    H56      H        0.52340    0.65070    0.97390    1.000
    N9       N        0.93980    0.18910    0.37971    1.000
    C53      C        0.93380    0.11140    0.38070    1.000
    H57      H        0.95840    0.08520    0.39770    1.000
    C54      C        0.89380    0.06870    0.35840    1.000
    H58      H        0.89150    0.01500    0.36040    1.000
    C55      C        0.85650    0.10560    0.33261    1.000
    C56      C        0.85970    0.18550    0.33180    1.000
    H59      H        0.83310    0.21250    0.31560    1.000
    C57      C        0.90170    0.22590    0.35486    1.000
    H60      H        0.90430    0.27970    0.35350    1.000
    C58      C        0.81050    0.05820    0.30750    1.000
    H61      H        0.76940    0.03060    0.31880    1.000
    H62      H        0.78640    0.09370    0.29220    1.000
    C59      C        0.85850    0.00020    0.28860    1.000
    H63      H        0.88340    0.96480    0.30370    1.000
    H64      H        0.89890    0.02740    0.27670    1.000
    C60      C        0.80950    0.95390    0.26470    1.000
    H65      H        0.77410    0.92120    0.27690    1.000
    H66      H        0.77860    0.98970    0.25180    1.000
    N10      N        0.94360    0.81300    0.19887    1.000
    C61      C        0.94600    0.89090    0.19770    1.000
    H67      H        0.97730    0.91460    0.18210    1.000
    C62      C        0.90350    0.93730    0.21890    1.000
    H68      H        0.90700    0.99110    0.21740    1.000
    C63      C        0.85630    0.90400    0.24210    1.000
    C64      C        0.85490    0.82360    0.24330    1.000
    H69      H        0.82340    0.79850    0.25850    1.000
    C65      C        0.90040    0.78040    0.22200    1.000
    H70      H        0.90070    0.72660    0.22390    1.000
    N11      N        0.43980    0.68910    0.87971    1.000
    C66      C        0.43380    0.61140    0.88070    1.000
    H71      H        0.45840    0.58520    0.89770    1.000
    C67      C        0.39380    0.56870    0.85840    1.000
    H72      H        0.39150    0.51500    0.86040    1.000
    C68      C        0.35650    0.60560    0.83261    1.000
    C69      C        0.35970    0.68550    0.83180    1.000
    H73      H        0.33310    0.71250    0.81560    1.000
    C70      C        0.40170    0.72590    0.85486    1.000
    H74      H        0.40430    0.77970    0.85350    1.000
    C71      C        0.31050    0.55820    0.80750    1.000
    H75      H        0.26940    0.53060    0.81880    1.000
    H76      H        0.28640    0.59370    0.79220    1.000
    C72      C        0.35850    0.50020    0.78860    1.000
    H77      H        0.38340    0.46480    0.80370    1.000
    H78      H        0.39890    0.52740    0.77670    1.000
    C73      C        0.30950    0.45390    0.76470    1.000
    H79      H        0.27410    0.42120    0.77690    1.000
    H80      H        0.27860    0.48970    0.75180    1.000
    N12      N        0.44360    0.31300    0.69887    1.000
    C74      C        0.44600    0.39090    0.69770    1.000
    H81      H        0.47730    0.41460    0.68210    1.000
    C75      C        0.40350    0.43730    0.71890    1.000
    H82      H        0.40700    0.49110    0.71740    1.000
    C76      C        0.35630    0.40400    0.74210    1.000
    C77      C        0.35490    0.32360    0.74330    1.000
    H83      H        0.32340    0.29850    0.75850    1.000
    C78      C        0.40040    0.28040    0.72200    1.000
    H84      H        0.40070    0.22660    0.72390    1.000
    N13      N        0.56020    0.81090    0.87971    1.000
    C79      C        0.56620    0.88860    0.88070    1.000
    H85      H        0.54160    0.91480    0.89770    1.000
    C80      C        0.60620    0.93130    0.85840    1.000
    H86      H        0.60850    0.98500    0.86040    1.000
    C81      C        0.64350    0.89440    0.83261    1.000
    C82      C        0.64030    0.81450    0.83180    1.000
    H87      H        0.66690    0.78750    0.81560    1.000
    C83      C        0.59830    0.77410    0.85486    1.000
    H88      H        0.59570    0.72030    0.85350    1.000
    C84      C        0.68950    0.94180    0.80750    1.000
    H89      H        0.73060    0.96940    0.81880    1.000
    H90      H        0.71360    0.90630    0.79220    1.000
    C85      C        0.64150    0.99980    0.78860    1.000
    H91      H        0.61660    0.03520    0.80370    1.000
    H92      H        0.60110    0.97260    0.77670    1.000
    C86      C        0.69050    0.04610    0.76470    1.000
    H93      H        0.72590    0.07880    0.77690    1.000
    H94      H        0.72140    0.01030    0.75180    1.000
    N14      N        0.55640    0.18700    0.69887    1.000
    C87      C        0.55400    0.10910    0.69770    1.000
    H95      H        0.52270    0.08540    0.68210    1.000
    C88      C        0.59650    0.06270    0.71890    1.000
    H96      H        0.59300    0.00890    0.71740    1.000
    C89      C        0.64370    0.09600    0.74210    1.000
    C90      C        0.64510    0.17640    0.74330    1.000
    H97      H        0.67660    0.20150    0.75850    1.000
    C91      C        0.59960    0.21960    0.72200    1.000
    H98      H        0.59930    0.27340    0.72390    1.000
    N15      N        0.06020    0.31090    0.37971    1.000
    C92      C        0.06620    0.38860    0.38070    1.000
    H99      H        0.04160    0.41480    0.39770    1.000
    C93      C        0.10620    0.43130    0.35840    1.000
    H100     H        0.10850    0.48500    0.36040    1.000
    C94      C        0.14350    0.39440    0.33261    1.000
    C95      C        0.14030    0.31450    0.33180    1.000
    H101     H        0.16690    0.28750    0.31560    1.000
    C96      C        0.09830    0.27410    0.35486    1.000
    H102     H        0.09570    0.22030    0.35350    1.000
    C97      C        0.18950    0.44180    0.30750    1.000
    H103     H        0.23060    0.46940    0.31880    1.000
    H104     H        0.21360    0.40630    0.29220    1.000
    C98      C        0.14150    0.49980    0.28860    1.000
    H105     H        0.11660    0.53520    0.30370    1.000
    H106     H        0.10110    0.47260    0.27670    1.000
    C99      C        0.19050    0.54610    0.26470    1.000
    H107     H        0.22590    0.57880    0.27690    1.000
    H108     H        0.22140    0.51030    0.25180    1.000
    N16      N        0.05640    0.68700    0.19887    1.000
    C100     C        0.05400    0.60910    0.19770    1.000
    H109     H        0.02270    0.58540    0.18210    1.000
    C101     C        0.09650    0.56270    0.21890    1.000
    H110     H        0.09300    0.50890    0.21740    1.000
    C102     C        0.14370    0.59600    0.24210    1.000
    C103     C        0.14510    0.67640    0.24330    1.000
    H111     H        0.17660    0.70150    0.25850    1.000
    C104     C        0.09960    0.71960    0.22200    1.000
    H112     H        0.09930    0.77340    0.22390    1.000
    Cu1      Cu       0.00000    0.75000    0.16412    1.000
    Cu2      Cu       0.50000    0.25000    0.66412    1.000
    Cu3      Cu       0.00000    0.25000    0.41412    1.000
    Cu4      Cu       0.50000    0.75000    0.91412    1.000
    N17      N        0.93690    0.30800    0.25561    1.000
    C105     C        0.85940    0.31160    0.25379    1.000
    H113     H        0.83470    0.28360    0.23740    1.000
    C106     C        0.81420    0.35440    0.27486    1.000
    H114     H        0.76050    0.35500    0.27240    1.000
    C107     C        0.84860    0.39620    0.29958    1.000
    C108     C        0.92860    0.39250    0.30222    1.000
    H115     H        0.95410    0.41900    0.31890    1.000
    C109     C        0.97040    0.34890    0.27978    1.000
    H116     H        0.02420    0.34790    0.28160    1.000
    C110     C        0.79890    0.44310    0.32300    1.000
    H117     H        0.76510    0.47700    0.31050    1.000
    H118     H        0.83230    0.47550    0.33630    1.000
    C111     C        0.74910    0.39170    0.34540    1.000
    H119     H        0.71980    0.35500    0.33230    1.000
    H120     H        0.78250    0.36240    0.36000    1.000
    C112     C        0.69380    0.44120    0.36523    1.000
    H121     H        0.72340    0.48140    0.37620    1.000
    H122     H        0.65780    0.46660    0.35050    1.000
    N18      N        0.56200    0.30910    0.43574    1.000
    C113     C        0.64000    0.31350    0.43757    1.000
    H123     H        0.66540    0.28710    0.45420    1.000
    C114     C        0.68360    0.35620    0.41543    1.000
    H124     H        0.73740    0.35780    0.41760    1.000
    C115     C        0.64830    0.39640    0.39024    1.000
    C116     C        0.56730    0.39120    0.38875    1.000
    H125     H        0.54020    0.41650    0.37220    1.000
    C117     C        0.52720    0.34820    0.41197    1.000
    H126     H        0.47330    0.34660    0.41080    1.000
    N19      N        0.43690    0.80800    0.75561    1.000
    C118     C        0.35940    0.81160    0.75379    1.000
    H127     H        0.33470    0.78360    0.73740    1.000
    C119     C        0.31420    0.85440    0.77486    1.000
    H128     H        0.26050    0.85500    0.77240    1.000
    C120     C        0.34860    0.89620    0.79958    1.000
    C121     C        0.42860    0.89250    0.80222    1.000
    H129     H        0.45410    0.91900    0.81890    1.000
    C122     C        0.47040    0.84890    0.77978    1.000
    H130     H        0.52420    0.84790    0.78160    1.000
    C123     C        0.29890    0.94310    0.82300    1.000
    H131     H        0.26510    0.97700    0.81050    1.000
    H132     H        0.33230    0.97550    0.83630    1.000
    C124     C        0.24910    0.89170    0.84540    1.000
    H133     H        0.21980    0.85500    0.83230    1.000
    H134     H        0.28250    0.86240    0.86000    1.000
    C125     C        0.19380    0.94120    0.86523    1.000
    H135     H        0.22340    0.98140    0.87620    1.000
    H136     H        0.15780    0.96660    0.85050    1.000
    N20      N        0.06200    0.80910    0.93574    1.000
    C126     C        0.14000    0.81350    0.93757    1.000
    H137     H        0.16540    0.78710    0.95420    1.000
    C127     C        0.18360    0.85620    0.91543    1.000
    H138     H        0.23740    0.85780    0.91760    1.000
    C128     C        0.14830    0.89640    0.89024    1.000
    C129     C        0.06730    0.89120    0.88875    1.000
    H139     H        0.04020    0.91650    0.87220    1.000
    C130     C        0.02720    0.84820    0.91197    1.000
    H140     H        0.97330    0.84660    0.91080    1.000
    N21      N        0.56310    0.69200    0.75561    1.000
    C131     C        0.64060    0.68840    0.75379    1.000
    H141     H        0.66530    0.71640    0.73740    1.000
    C132     C        0.68580    0.64560    0.77486    1.000
    H142     H        0.73950    0.64500    0.77240    1.000
    C133     C        0.65140    0.60380    0.79958    1.000
    C134     C        0.57140    0.60750    0.80222    1.000
    H143     H        0.54590    0.58100    0.81890    1.000
    C135     C        0.52960    0.65110    0.77978    1.000
    H144     H        0.47580    0.65210    0.78160    1.000
    C136     C        0.70110    0.55690    0.82300    1.000
    H145     H        0.73490    0.52300    0.81050    1.000
    H146     H        0.66770    0.52450    0.83630    1.000
    C137     C        0.75090    0.60830    0.84540    1.000
    H147     H        0.78020    0.64500    0.83230    1.000
    H148     H        0.71750    0.63760    0.86000    1.000
    C138     C        0.80620    0.55880    0.86523    1.000
    H149     H        0.77660    0.51860    0.87620    1.000
    H150     H        0.84220    0.53340    0.85050    1.000
    N22      N        0.93800    0.69090    0.93574    1.000
    C139     C        0.86000    0.68650    0.93757    1.000
    H151     H        0.83460    0.71290    0.95420    1.000
    C140     C        0.81640    0.64380    0.91543    1.000
    H152     H        0.76260    0.64220    0.91760    1.000
    C141     C        0.85170    0.60360    0.89024    1.000
    C142     C        0.93270    0.60880    0.88875    1.000
    H153     H        0.95980    0.58350    0.87220    1.000
    C143     C        0.97280    0.65180    0.91197    1.000
    H154     H        0.02670    0.65340    0.91080    1.000
    N23      N        0.06310    0.19200    0.25561    1.000
    C144     C        0.14060    0.18840    0.25379    1.000
    H155     H        0.16530    0.21640    0.23740    1.000
    C145     C        0.18580    0.14560    0.27486    1.000
    H156     H        0.23950    0.14500    0.27240    1.000
    C146     C        0.15140    0.10380    0.29958    1.000
    C147     C        0.07140    0.10750    0.30222    1.000
    H157     H        0.04590    0.08100    0.31890    1.000
    C148     C        0.02960    0.15110    0.27978    1.000
    H158     H        0.97580    0.15210    0.28160    1.000
    C149     C        0.20110    0.05690    0.32300    1.000
    H159     H        0.23490    0.02300    0.31050    1.000
    H160     H        0.16770    0.02450    0.33630    1.000
    C150     C        0.25090    0.10830    0.34540    1.000
    H161     H        0.28020    0.14500    0.33230    1.000
    H162     H        0.21750    0.13760    0.36000    1.000
    C151     C        0.30620    0.05880    0.36523    1.000
    H163     H        0.27660    0.01860    0.37620    1.000
    H164     H        0.34220    0.03340    0.35050    1.000
    N24      N        0.43800    0.19090    0.43574    1.000
    C152     C        0.36000    0.18650    0.43757    1.000
    H165     H        0.33460    0.21290    0.45420    1.000
    C153     C        0.31640    0.14380    0.41543    1.000
    H166     H        0.26260    0.14220    0.41760    1.000
    C154     C        0.35170    0.10360    0.39024    1.000
    C155     C        0.43270    0.10880    0.38875    1.000
    H167     H        0.45980    0.08350    0.37220    1.000
    C156     C        0.47280    0.15180    0.41197    1.000
    H168     H        0.52670    0.15340    0.41080    1.000
    N25      N        0.44200    0.18690    0.50561    1.000
    C157     C        0.43840    0.10940    0.50379    1.000
    H169     H        0.46640    0.08470    0.48740    1.000
    C158     C        0.39560    0.06420    0.52486    1.000
    H170     H        0.39500    0.01050    0.52240    1.000
    C159     C        0.35380    0.09860    0.54958    1.000
    C160     C        0.35750    0.17860    0.55222    1.000
    H171     H        0.33100    0.20410    0.56890    1.000
    C161     C        0.40110    0.22040    0.52978    1.000
    H172     H        0.40210    0.27420    0.53160    1.000
    C162     C        0.30690    0.04890    0.57300    1.000
    H173     H        0.27300    0.01510    0.56050    1.000
    H174     H        0.27450    0.08230    0.58630    1.000
    C163     C        0.35830    0.99910    0.59540    1.000
    H175     H        0.39500    0.96980    0.58230    1.000
    H176     H        0.38760    0.03250    0.61000    1.000
    C164     C        0.30880    0.94380    0.61523    1.000
    H177     H        0.26860    0.97340    0.62620    1.000
    H178     H        0.28340    0.90780    0.60050    1.000
    N26      N        0.44090    0.81200    0.68574    1.000
    C165     C        0.43650    0.89000    0.68757    1.000
    H179     H        0.46290    0.91540    0.70420    1.000
    C166     C        0.39380    0.93360    0.66543    1.000
    H180     H        0.39220    0.98740    0.66760    1.000
    C167     C        0.35360    0.89830    0.64024    1.000
    C168     C        0.35880    0.81730    0.63875    1.000
    H181     H        0.33350    0.79020    0.62220    1.000
    C169     C        0.40180    0.77720    0.66197    1.000
    H182     H        0.40340    0.72330    0.66080    1.000
    N27      N        0.94200    0.68690    0.00561    1.000
    C170     C        0.93840    0.60940    0.00379    1.000
    H183     H        0.96640    0.58470    0.98740    1.000
    C171     C        0.89560    0.56420    0.02486    1.000
    H184     H        0.89500    0.51050    0.02240    1.000
    C172     C        0.85380    0.59860    0.04958    1.000
    C173     C        0.85750    0.67860    0.05222    1.000
    H185     H        0.83100    0.70410    0.06890    1.000
    C174     C        0.90110    0.72040    0.02978    1.000
    H186     H        0.90210    0.77420    0.03160    1.000
    C175     C        0.80690    0.54890    0.07300    1.000
    H187     H        0.77300    0.51510    0.06050    1.000
    H188     H        0.77450    0.58230    0.08630    1.000
    C176     C        0.85830    0.49910    0.09540    1.000
    H189     H        0.89500    0.46980    0.08230    1.000
    H190     H        0.88760    0.53250    0.11000    1.000
    C177     C        0.80880    0.44380    0.11523    1.000
    H191     H        0.76860    0.47340    0.12620    1.000
    H192     H        0.78340    0.40780    0.10050    1.000
    N28      N        0.94090    0.31200    0.18574    1.000
    C178     C        0.93650    0.39000    0.18757    1.000
    H193     H        0.96290    0.41540    0.20420    1.000
    C179     C        0.89380    0.43360    0.16543    1.000
    H194     H        0.89220    0.48740    0.16760    1.000
    C180     C        0.85360    0.39830    0.14024    1.000
    C181     C        0.85880    0.31730    0.13875    1.000
    H195     H        0.83350    0.29020    0.12220    1.000
    C182     C        0.90180    0.27720    0.16197    1.000
    H196     H        0.90340    0.22330    0.16080    1.000
    N29      N        0.05800    0.81310    0.00561    1.000
    C183     C        0.06160    0.89060    0.00379    1.000
    H197     H        0.03360    0.91530    0.98740    1.000
    C184     C        0.10440    0.93580    0.02486    1.000
    H198     H        0.10500    0.98950    0.02240    1.000
    C185     C        0.14620    0.90140    0.04958    1.000
    C186     C        0.14250    0.82140    0.05222    1.000
    H199     H        0.16900    0.79590    0.06890    1.000
    C187     C        0.09890    0.77960    0.02978    1.000
    H200     H        0.09790    0.72580    0.03160    1.000
    C188     C        0.19310    0.95110    0.07300    1.000
    H201     H        0.22700    0.98490    0.06050    1.000
    H202     H        0.22550    0.91770    0.08630    1.000
    C189     C        0.14170    0.00090    0.09540    1.000
    H203     H        0.10500    0.03020    0.08230    1.000
    H204     H        0.11240    0.96750    0.11000    1.000
    C190     C        0.19120    0.05620    0.11523    1.000
    H205     H        0.23140    0.02660    0.12620    1.000
    H206     H        0.21660    0.09220    0.10050    1.000
    N30      N        0.05910    0.18800    0.18574    1.000
    C191     C        0.06350    0.11000    0.18757    1.000
    H207     H        0.03710    0.08460    0.20420    1.000
    C192     C        0.10620    0.06640    0.16543    1.000
    H208     H        0.10780    0.01260    0.16760    1.000
    C193     C        0.14640    0.10170    0.14024    1.000
    C194     C        0.14120    0.18270    0.13875    1.000
    H209     H        0.16650    0.20980    0.12220    1.000
    C195     C        0.09820    0.22280    0.16197    1.000
    H210     H        0.09660    0.27670    0.16080    1.000
    N31      N        0.55800    0.31310    0.50561    1.000
    C196     C        0.56160    0.39060    0.50379    1.000
    H211     H        0.53360    0.41530    0.48740    1.000
    C197     C        0.60440    0.43580    0.52486    1.000
    H212     H        0.60500    0.48950    0.52240    1.000
    C198     C        0.64620    0.40140    0.54958    1.000
    C199     C        0.64250    0.32140    0.55222    1.000
    H213     H        0.66900    0.29590    0.56890    1.000
    C200     C        0.59890    0.27960    0.52978    1.000
    H214     H        0.59790    0.22580    0.53160    1.000
    C201     C        0.69310    0.45110    0.57300    1.000
    H215     H        0.72700    0.48490    0.56050    1.000
    H216     H        0.72550    0.41770    0.58630    1.000
    C202     C        0.64170    0.50090    0.59540    1.000
    H217     H        0.60500    0.53020    0.58230    1.000
    H218     H        0.61240    0.46750    0.61000    1.000
    C203     C        0.69120    0.55620    0.61523    1.000
    H219     H        0.73140    0.52660    0.62620    1.000
    H220     H        0.71660    0.59220    0.60050    1.000
    N32      N        0.55910    0.68800    0.68574    1.000
    C204     C        0.56350    0.61000    0.68757    1.000
    H221     H        0.53710    0.58460    0.70420    1.000
    C205     C        0.60620    0.56640    0.66543    1.000
    H222     H        0.60780    0.51260    0.66760    1.000
    C206     C        0.64640    0.60170    0.64024    1.000
    C207     C        0.64120    0.68270    0.63875    1.000
    H223     H        0.66650    0.70980    0.62220    1.000
    C208     C        0.59820    0.72280    0.66197    1.000
    H224     H        0.59660    0.77670    0.66080    1.000
    Cu5      Cu       0.00000    0.25000    0.22114    1.000
    Cu6      Cu       0.50000    0.75000    0.72114    1.000
    Cu7      Cu       0.50000    0.25000    0.47114    1.000
    Cu8      Cu       0.00000    0.75000    0.97114    1.000
    N33      N        0.06090    0.18980    0.87029    1.000
    C209     C        0.13860    0.18380    0.86930    1.000
    H225     H        0.16480    0.20840    0.85230    1.000
    C210     C        0.18130    0.14380    0.89160    1.000
    H226     H        0.23500    0.14150    0.88960    1.000
    C211     C        0.14440    0.10650    0.91739    1.000
    C212     C        0.06450    0.10970    0.91820    1.000
    H227     H        0.03750    0.08310    0.93440    1.000
    C213     C        0.02410    0.15170    0.89514    1.000
    H228     H        0.97030    0.15430    0.89650    1.000
    C214     C        0.19180    0.06050    0.94250    1.000
    H229     H        0.21940    0.01940    0.93120    1.000
    H230     H        0.15630    0.03640    0.95780    1.000
    C215     C        0.24980    0.10850    0.96140    1.000
    H231     H        0.28520    0.13340    0.94630    1.000
    H232     H        0.22260    0.14890    0.97330    1.000
    C216     C        0.29610    0.05950    0.98530    1.000
    H233     H        0.32880    0.02410    0.97310    1.000
    H234     H        0.26030    0.02860    0.99820    1.000
    N34      N        0.43700    0.19360    0.05113    1.000
    C217     C        0.35910    0.19600    0.05230    1.000
    H235     H        0.33540    0.22730    0.06790    1.000
    C218     C        0.31270    0.15350    0.03110    1.000
    H236     H        0.25890    0.15700    0.03260    1.000
    C219     C        0.34600    0.10630    0.00790    1.000
    C220     C        0.42640    0.10490    0.00670    1.000
    H237     H        0.45150    0.07340    0.99150    1.000
    C221     C        0.46960    0.15040    0.02800    1.000
    H238     H        0.52340    0.15070    0.02610    1.000
    N35      N        0.56090    0.68980    0.37029    1.000
    C222     C        0.63860    0.68380    0.36930    1.000
    H239     H        0.66480    0.70840    0.35230    1.000
    C223     C        0.68130    0.64380    0.39160    1.000
    H240     H        0.73500    0.64150    0.38960    1.000
    C224     C        0.64440    0.60650    0.41739    1.000
    C225     C        0.56450    0.60970    0.41820    1.000
    H241     H        0.53750    0.58310    0.43440    1.000
    C226     C        0.52410    0.65170    0.39514    1.000
    H242     H        0.47030    0.65430    0.39650    1.000
    C227     C        0.69180    0.56050    0.44250    1.000
    H243     H        0.71940    0.51940    0.43120    1.000
    H244     H        0.65630    0.53640    0.45780    1.000
    C228     C        0.74980    0.60850    0.46140    1.000
    H245     H        0.78520    0.63340    0.44630    1.000
    H246     H        0.72260    0.64890    0.47330    1.000
    C229     C        0.79610    0.55950    0.48530    1.000
    H247     H        0.82880    0.52410    0.47310    1.000
    H248     H        0.76030    0.52860    0.49820    1.000
    N36      N        0.93700    0.69360    0.55113    1.000
    C230     C        0.85910    0.69600    0.55230    1.000
    H249     H        0.83540    0.72730    0.56790    1.000
    C231     C        0.81270    0.65350    0.53110    1.000
    H250     H        0.75890    0.65700    0.53260    1.000
    C232     C        0.84600    0.60630    0.50790    1.000
    C233     C        0.92640    0.60490    0.50670    1.000
    H251     H        0.95150    0.57340    0.49150    1.000
    C234     C        0.96960    0.65040    0.52800    1.000
    H252     H        0.02340    0.65070    0.52610    1.000
    N37      N        0.43910    0.81020    0.37029    1.000
    C235     C        0.36140    0.81620    0.36930    1.000
    H253     H        0.33520    0.79160    0.35230    1.000
    C236     C        0.31870    0.85620    0.39160    1.000
    H254     H        0.26500    0.85850    0.38960    1.000
    C237     C        0.35560    0.89350    0.41739    1.000
    C238     C        0.43550    0.89030    0.41820    1.000
    H255     H        0.46250    0.91690    0.43440    1.000
    C239     C        0.47590    0.84830    0.39514    1.000
    H256     H        0.52970    0.84570    0.39650    1.000
    C240     C        0.30820    0.93950    0.44250    1.000
    H257     H        0.28060    0.98060    0.43120    1.000
    H258     H        0.34370    0.96360    0.45780    1.000
    C241     C        0.25020    0.89150    0.46140    1.000
    H259     H        0.21480    0.86660    0.44630    1.000
    H260     H        0.27740    0.85110    0.47330    1.000
    C242     C        0.20390    0.94050    0.48530    1.000
    H261     H        0.17120    0.97590    0.47310    1.000
    H262     H        0.23970    0.97140    0.49820    1.000
    N38      N        0.06300    0.80640    0.55113    1.000
    C243     C        0.14090    0.80400    0.55230    1.000
    H263     H        0.16460    0.77270    0.56790    1.000
    C244     C        0.18730    0.84650    0.53110    1.000
    H264     H        0.24110    0.84300    0.53260    1.000
    C245     C        0.15400    0.89370    0.50790    1.000
    C246     C        0.07360    0.89510    0.50670    1.000
    H265     H        0.04850    0.92660    0.49150    1.000
    C247     C        0.03040    0.84960    0.52800    1.000
    H266     H        0.97660    0.84930    0.52610    1.000
    N39      N        0.93910    0.31020    0.87029    1.000
    C248     C        0.86140    0.31620    0.86930    1.000
    H267     H        0.83520    0.29160    0.85230    1.000
    C249     C        0.81870    0.35620    0.89160    1.000
    H268     H        0.76500    0.35850    0.88960    1.000
    C250     C        0.85560    0.39350    0.91739    1.000
    C251     C        0.93550    0.39030    0.91820    1.000
    H269     H        0.96250    0.41690    0.93440    1.000
    C252     C        0.97590    0.34830    0.89514    1.000
    H270     H        0.02970    0.34570    0.89650    1.000
    C253     C        0.80820    0.43950    0.94250    1.000
    H271     H        0.78060    0.48060    0.93120    1.000
    H272     H        0.84370    0.46360    0.95780    1.000
    C254     C        0.75020    0.39150    0.96140    1.000
    H273     H        0.71480    0.36660    0.94630    1.000
    H274     H        0.77740    0.35110    0.97330    1.000
    C255     C        0.70390    0.44050    0.98530    1.000
    H275     H        0.67120    0.47590    0.97310    1.000
    H276     H        0.73970    0.47140    0.99820    1.000
    N40      N        0.56300    0.30640    0.05113    1.000
    C256     C        0.64090    0.30400    0.05230    1.000
    H277     H        0.66460    0.27270    0.06790    1.000
    C257     C        0.68730    0.34650    0.03110    1.000
    H278     H        0.74110    0.34300    0.03260    1.000
    C258     C        0.65400    0.39370    0.00790    1.000
    C259     C        0.57360    0.39510    0.00670    1.000
    H279     H        0.54850    0.42660    0.99150    1.000
    C260     C        0.53040    0.34960    0.02800    1.000
    H280     H        0.47660    0.34930    0.02610    1.000
    N41      N        0.06020    0.81090    0.62029    1.000
    C261     C        0.06620    0.88860    0.61930    1.000
    H281     H        0.04160    0.91480    0.60230    1.000
    C262     C        0.10620    0.93130    0.64160    1.000
    H282     H        0.10850    0.98500    0.63960    1.000
    C263     C        0.14350    0.89440    0.66739    1.000
    C264     C        0.14030    0.81450    0.66820    1.000
    H283     H        0.16690    0.78750    0.68440    1.000
    C265     C        0.09830    0.77410    0.64514    1.000
    H284     H        0.09570    0.72030    0.64650    1.000
    C266     C        0.18950    0.94180    0.69250    1.000
    H285     H        0.23060    0.96940    0.68120    1.000
    H286     H        0.21360    0.90630    0.70780    1.000
    C267     C        0.14150    0.99980    0.71140    1.000
    H287     H        0.11660    0.03520    0.69630    1.000
    H288     H        0.10110    0.97260    0.72330    1.000
    C268     C        0.19050    0.04610    0.73530    1.000
    H289     H        0.22590    0.07880    0.72310    1.000
    H290     H        0.22140    0.01030    0.74820    1.000
    N42      N        0.05640    0.18700    0.80113    1.000
    C269     C        0.05400    0.10910    0.80230    1.000
    H291     H        0.02270    0.08540    0.81790    1.000
    C270     C        0.09650    0.06270    0.78110    1.000
    H292     H        0.09300    0.00890    0.78260    1.000
    C271     C        0.14370    0.09600    0.75790    1.000
    C272     C        0.14510    0.17640    0.75670    1.000
    H293     H        0.17660    0.20150    0.74150    1.000
    C273     C        0.09960    0.21960    0.77800    1.000
    H294     H        0.09930    0.27340    0.77610    1.000
    N43      N        0.56020    0.31090    0.12029    1.000
    C274     C        0.56620    0.38860    0.11930    1.000
    H295     H        0.54160    0.41480    0.10230    1.000
    C275     C        0.60620    0.43130    0.14160    1.000
    H296     H        0.60850    0.48500    0.13960    1.000
    C276     C        0.64350    0.39440    0.16739    1.000
    C277     C        0.64030    0.31450    0.16820    1.000
    H297     H        0.66690    0.28750    0.18440    1.000
    C278     C        0.59830    0.27410    0.14514    1.000
    H298     H        0.59570    0.22030    0.14650    1.000
    C279     C        0.68950    0.44180    0.19250    1.000
    H299     H        0.73060    0.46940    0.18120    1.000
    H300     H        0.71360    0.40630    0.20780    1.000
    C280     C        0.64150    0.49980    0.21140    1.000
    H301     H        0.61660    0.53520    0.19630    1.000
    H302     H        0.60110    0.47260    0.22330    1.000
    C281     C        0.69050    0.54610    0.23530    1.000
    H303     H        0.72590    0.57880    0.22310    1.000
    H304     H        0.72140    0.51030    0.24820    1.000
    N44      N        0.55640    0.68700    0.30113    1.000
    C282     C        0.55400    0.60910    0.30230    1.000
    H305     H        0.52270    0.58540    0.31790    1.000
    C283     C        0.59650    0.56270    0.28110    1.000
    H306     H        0.59300    0.50890    0.28260    1.000
    C284     C        0.64370    0.59600    0.25790    1.000
    C285     C        0.64510    0.67640    0.25670    1.000
    H307     H        0.67660    0.70150    0.24150    1.000
    C286     C        0.59960    0.71960    0.27800    1.000
    H308     H        0.59930    0.77340    0.27610    1.000
    N45      N        0.43980    0.18910    0.12029    1.000
    C287     C        0.43380    0.11140    0.11930    1.000
    H309     H        0.45840    0.08520    0.10230    1.000
    C288     C        0.39380    0.06870    0.14160    1.000
    H310     H        0.39150    0.01500    0.13960    1.000
    C289     C        0.35650    0.10560    0.16739    1.000
    C290     C        0.35970    0.18550    0.16820    1.000
    H311     H        0.33310    0.21250    0.18440    1.000
    C291     C        0.40170    0.22590    0.14514    1.000
    H312     H        0.40430    0.27970    0.14650    1.000
    C292     C        0.31050    0.05820    0.19250    1.000
    H313     H        0.26940    0.03060    0.18120    1.000
    H314     H        0.28640    0.09370    0.20780    1.000
    C293     C        0.35850    0.00020    0.21140    1.000
    H315     H        0.38340    0.96480    0.19630    1.000
    H316     H        0.39890    0.02740    0.22330    1.000
    C294     C        0.30950    0.95390    0.23530    1.000
    H317     H        0.27410    0.92120    0.22310    1.000
    H318     H        0.27860    0.98970    0.24820    1.000
    N46      N        0.44360    0.81300    0.30113    1.000
    C295     C        0.44600    0.89090    0.30230    1.000
    H319     H        0.47730    0.91460    0.31790    1.000
    C296     C        0.40350    0.93730    0.28110    1.000
    H320     H        0.40700    0.99110    0.28260    1.000
    C297     C        0.35630    0.90400    0.25790    1.000
    C298     C        0.35490    0.82360    0.25670    1.000
    H321     H        0.32340    0.79850    0.24150    1.000
    C299     C        0.40040    0.78040    0.27800    1.000
    H322     H        0.40070    0.72660    0.27610    1.000
    N47      N        0.93980    0.68910    0.62029    1.000
    C300     C        0.93380    0.61140    0.61930    1.000
    H323     H        0.95840    0.58520    0.60230    1.000
    C301     C        0.89380    0.56870    0.64160    1.000
    H324     H        0.89150    0.51500    0.63960    1.000
    C302     C        0.85650    0.60560    0.66739    1.000
    C303     C        0.85970    0.68550    0.66820    1.000
    H325     H        0.83310    0.71250    0.68440    1.000
    C304     C        0.90170    0.72590    0.64514    1.000
    H326     H        0.90430    0.77970    0.64650    1.000
    C305     C        0.81050    0.55820    0.69250    1.000
    H327     H        0.76940    0.53060    0.68120    1.000
    H328     H        0.78640    0.59370    0.70780    1.000
    C306     C        0.85850    0.50020    0.71140    1.000
    H329     H        0.88340    0.46480    0.69630    1.000
    H330     H        0.89890    0.52740    0.72330    1.000
    C307     C        0.80950    0.45390    0.73530    1.000
    H331     H        0.77410    0.42120    0.72310    1.000
    H332     H        0.77860    0.48970    0.74820    1.000
    N48      N        0.94360    0.31300    0.80113    1.000
    C308     C        0.94600    0.39090    0.80230    1.000
    H333     H        0.97730    0.41460    0.81790    1.000
    C309     C        0.90350    0.43730    0.78110    1.000
    H334     H        0.90700    0.49110    0.78260    1.000
    C310     C        0.85630    0.40400    0.75790    1.000
    C311     C        0.85490    0.32360    0.75670    1.000
    H335     H        0.82340    0.29850    0.74150    1.000
    C312     C        0.90040    0.28040    0.77800    1.000
    H336     H        0.90070    0.22660    0.77610    1.000
    Cu9      Cu       0.00000    0.25000    0.83588    1.000
    Cu10     Cu       0.50000    0.75000    0.33588    1.000
    Cu11     Cu       0.00000    0.75000    0.58588    1.000
    Cu12     Cu       0.50000    0.25000    0.08588    1.000
    N49      N        0.06310    0.69200    0.74439    1.000
    C313     C        0.14060    0.68840    0.74621    1.000
    H337     H        0.16530    0.71640    0.76260    1.000
    C314     C        0.18580    0.64560    0.72514    1.000
    H338     H        0.23950    0.64500    0.72760    1.000
    C315     C        0.15140    0.60380    0.70042    1.000
    C316     C        0.07140    0.60750    0.69778    1.000
    H339     H        0.04590    0.58100    0.68110    1.000
    C317     C        0.02960    0.65110    0.72022    1.000
    H340     H        0.97580    0.65210    0.71840    1.000
    C318     C        0.20110    0.55690    0.67700    1.000
    H341     H        0.23490    0.52300    0.68950    1.000
    H342     H        0.16770    0.52450    0.66370    1.000
    C319     C        0.25090    0.60830    0.65460    1.000
    H343     H        0.28020    0.64500    0.66770    1.000
    H344     H        0.21750    0.63760    0.64000    1.000
    C320     C        0.30620    0.55880    0.63477    1.000
    H345     H        0.27660    0.51860    0.62380    1.000
    H346     H        0.34220    0.53340    0.64950    1.000
    N50      N        0.43800    0.69090    0.56426    1.000
    C321     C        0.36000    0.68650    0.56243    1.000
    H347     H        0.33460    0.71290    0.54580    1.000
    C322     C        0.31640    0.64380    0.58457    1.000
    H348     H        0.26260    0.64220    0.58240    1.000
    C323     C        0.35170    0.60360    0.60976    1.000
    C324     C        0.43270    0.60880    0.61125    1.000
    H349     H        0.45980    0.58350    0.62780    1.000
    C325     C        0.47280    0.65180    0.58803    1.000
    H350     H        0.52670    0.65340    0.58920    1.000
    N51      N        0.56310    0.19200    0.24439    1.000
    C326     C        0.64060    0.18840    0.24621    1.000
    H351     H        0.66530    0.21640    0.26260    1.000
    C327     C        0.68580    0.14560    0.22514    1.000
    H352     H        0.73950    0.14500    0.22760    1.000
    C328     C        0.65140    0.10380    0.20042    1.000
    C329     C        0.57140    0.10750    0.19778    1.000
    H353     H        0.54590    0.08100    0.18110    1.000
    C330     C        0.52960    0.15110    0.22022    1.000
    H354     H        0.47580    0.15210    0.21840    1.000
    C331     C        0.70110    0.05690    0.17700    1.000
    H355     H        0.73490    0.02300    0.18950    1.000
    H356     H        0.66770    0.02450    0.16370    1.000
    C332     C        0.75090    0.10830    0.15460    1.000
    H357     H        0.78020    0.14500    0.16770    1.000
    H358     H        0.71750    0.13760    0.14000    1.000
    C333     C        0.80620    0.05880    0.13477    1.000
    H359     H        0.77660    0.01860    0.12380    1.000
    H360     H        0.84220    0.03340    0.14950    1.000
    N52      N        0.93800    0.19090    0.06426    1.000
    C334     C        0.86000    0.18650    0.06243    1.000
    H361     H        0.83460    0.21290    0.04580    1.000
    C335     C        0.81640    0.14380    0.08457    1.000
    H362     H        0.76260    0.14220    0.08240    1.000
    C336     C        0.85170    0.10360    0.10976    1.000
    C337     C        0.93270    0.10880    0.11125    1.000
    H363     H        0.95980    0.08350    0.12780    1.000
    C338     C        0.97280    0.15180    0.08803    1.000
    H364     H        0.02670    0.15340    0.08920    1.000
    N53      N        0.43690    0.30800    0.24439    1.000
    C339     C        0.35940    0.31160    0.24621    1.000
    H365     H        0.33470    0.28360    0.26260    1.000
    C340     C        0.31420    0.35440    0.22514    1.000
    H366     H        0.26050    0.35500    0.22760    1.000
    C341     C        0.34860    0.39620    0.20042    1.000
    C342     C        0.42860    0.39250    0.19778    1.000
    H367     H        0.45410    0.41900    0.18110    1.000
    C343     C        0.47040    0.34890    0.22022    1.000
    H368     H        0.52420    0.34790    0.21840    1.000
    C344     C        0.29890    0.44310    0.17700    1.000
    H369     H        0.26510    0.47700    0.18950    1.000
    H370     H        0.33230    0.47550    0.16370    1.000
    C345     C        0.24910    0.39170    0.15460    1.000
    H371     H        0.21980    0.35500    0.16770    1.000
    H372     H        0.28250    0.36240    0.14000    1.000
    C346     C        0.19380    0.44120    0.13477    1.000
    H373     H        0.22340    0.48140    0.12380    1.000
    H374     H        0.15780    0.46660    0.14950    1.000
    N54      N        0.06200    0.30910    0.06426    1.000
    C347     C        0.14000    0.31350    0.06243    1.000
    H375     H        0.16540    0.28710    0.04580    1.000
    C348     C        0.18360    0.35620    0.08457    1.000
    H376     H        0.23740    0.35780    0.08240    1.000
    C349     C        0.14830    0.39640    0.10976    1.000
    C350     C        0.06730    0.39120    0.11125    1.000
    H377     H        0.04020    0.41650    0.12780    1.000
    C351     C        0.02720    0.34820    0.08803    1.000
    H378     H        0.97330    0.34660    0.08920    1.000
    N55      N        0.93690    0.80800    0.74439    1.000
    C352     C        0.85940    0.81160    0.74621    1.000
    H379     H        0.83470    0.78360    0.76260    1.000
    C353     C        0.81420    0.85440    0.72514    1.000
    H380     H        0.76050    0.85500    0.72760    1.000
    C354     C        0.84860    0.89620    0.70042    1.000
    C355     C        0.92860    0.89250    0.69778    1.000
    H381     H        0.95410    0.91900    0.68110    1.000
    C356     C        0.97040    0.84890    0.72022    1.000
    H382     H        0.02420    0.84790    0.71840    1.000
    C357     C        0.79890    0.94310    0.67700    1.000
    H383     H        0.76510    0.97700    0.68950    1.000
    H384     H        0.83230    0.97550    0.66370    1.000
    C358     C        0.74910    0.89170    0.65460    1.000
    H385     H        0.71980    0.85500    0.66770    1.000
    H386     H        0.78250    0.86240    0.64000    1.000
    C359     C        0.69380    0.94120    0.63477    1.000
    H387     H        0.72340    0.98140    0.62380    1.000
    H388     H        0.65780    0.96660    0.64950    1.000
    N56      N        0.56200    0.80910    0.56426    1.000
    C360     C        0.64000    0.81350    0.56243    1.000
    H389     H        0.66540    0.78710    0.54580    1.000
    C361     C        0.68360    0.85620    0.58457    1.000
    H390     H        0.73740    0.85780    0.58240    1.000
    C362     C        0.64830    0.89640    0.60976    1.000
    C363     C        0.56730    0.89120    0.61125    1.000
    H391     H        0.54020    0.91650    0.62780    1.000
    C364     C        0.52720    0.84820    0.58803    1.000
    H392     H        0.47330    0.84660    0.58920    1.000
    N57      N        0.55800    0.81310    0.49439    1.000
    C365     C        0.56160    0.89060    0.49621    1.000
    H393     H        0.53360    0.91530    0.51260    1.000
    C366     C        0.60440    0.93580    0.47514    1.000
    H394     H        0.60500    0.98950    0.47760    1.000
    C367     C        0.64620    0.90140    0.45042    1.000
    C368     C        0.64250    0.82140    0.44778    1.000
    H395     H        0.66900    0.79590    0.43110    1.000
    C369     C        0.59890    0.77960    0.47022    1.000
    H396     H        0.59790    0.72580    0.46840    1.000
    C370     C        0.69310    0.95110    0.42700    1.000
    H397     H        0.72700    0.98490    0.43950    1.000
    H398     H        0.72550    0.91770    0.41370    1.000
    C371     C        0.64170    0.00090    0.40460    1.000
    H399     H        0.60500    0.03020    0.41770    1.000
    H400     H        0.61240    0.96750    0.39000    1.000
    C372     C        0.69120    0.05620    0.38477    1.000
    H401     H        0.73140    0.02660    0.37380    1.000
    H402     H        0.71660    0.09220    0.39950    1.000
    N58      N        0.55910    0.18800    0.31426    1.000
    C373     C        0.56350    0.11000    0.31243    1.000
    H403     H        0.53710    0.08460    0.29580    1.000
    C374     C        0.60620    0.06640    0.33457    1.000
    H404     H        0.60780    0.01260    0.33240    1.000
    C375     C        0.64640    0.10170    0.35976    1.000
    C376     C        0.64120    0.18270    0.36125    1.000
    H405     H        0.66650    0.20980    0.37780    1.000
    C377     C        0.59820    0.22280    0.33803    1.000
    H406     H        0.59660    0.27670    0.33920    1.000
    N59      N        0.05800    0.31310    0.99439    1.000
    C378     C        0.06160    0.39060    0.99621    1.000
    H407     H        0.03360    0.41530    0.01260    1.000
    C379     C        0.10440    0.43580    0.97514    1.000
    H408     H        0.10500    0.48950    0.97760    1.000
    C380     C        0.14620    0.40140    0.95042    1.000
    C381     C        0.14250    0.32140    0.94778    1.000
    H409     H        0.16900    0.29590    0.93110    1.000
    C382     C        0.09890    0.27960    0.97022    1.000
    H410     H        0.09790    0.22580    0.96840    1.000
    C383     C        0.19310    0.45110    0.92700    1.000
    H411     H        0.22700    0.48490    0.93950    1.000
    H412     H        0.22550    0.41770    0.91370    1.000
    C384     C        0.14170    0.50090    0.90460    1.000
    H413     H        0.10500    0.53020    0.91770    1.000
    H414     H        0.11240    0.46750    0.89000    1.000
    C385     C        0.19120    0.55620    0.88477    1.000
    H415     H        0.23140    0.52660    0.87380    1.000
    H416     H        0.21660    0.59220    0.89950    1.000
    N60      N        0.05910    0.68800    0.81426    1.000
    C386     C        0.06350    0.61000    0.81243    1.000
    H417     H        0.03710    0.58460    0.79580    1.000
    C387     C        0.10620    0.56640    0.83457    1.000
    H418     H        0.10780    0.51260    0.83240    1.000
    C388     C        0.14640    0.60170    0.85976    1.000
    C389     C        0.14120    0.68270    0.86125    1.000
    H419     H        0.16650    0.70980    0.87780    1.000
    C390     C        0.09820    0.72280    0.83803    1.000
    H420     H        0.09660    0.77670    0.83920    1.000
    N61      N        0.94200    0.18690    0.99439    1.000
    C391     C        0.93840    0.10940    0.99621    1.000
    H421     H        0.96640    0.08470    0.01260    1.000
    C392     C        0.89560    0.06420    0.97514    1.000
    H422     H        0.89500    0.01050    0.97760    1.000
    C393     C        0.85380    0.09860    0.95042    1.000
    C394     C        0.85750    0.17860    0.94778    1.000
    H423     H        0.83100    0.20410    0.93110    1.000
    C395     C        0.90110    0.22040    0.97022    1.000
    H424     H        0.90210    0.27420    0.96840    1.000
    C396     C        0.80690    0.04890    0.92700    1.000
    H425     H        0.77300    0.01510    0.93950    1.000
    H426     H        0.77450    0.08230    0.91370    1.000
    C397     C        0.85830    0.99910    0.90460    1.000
    H427     H        0.89500    0.96980    0.91770    1.000
    H428     H        0.88760    0.03250    0.89000    1.000
    C398     C        0.80880    0.94380    0.88477    1.000
    H429     H        0.76860    0.97340    0.87380    1.000
    H430     H        0.78340    0.90780    0.89950    1.000
    N62      N        0.94090    0.81200    0.81426    1.000
    C399     C        0.93650    0.89000    0.81243    1.000
    H431     H        0.96290    0.91540    0.79580    1.000
    C400     C        0.89380    0.93360    0.83457    1.000
    H432     H        0.89220    0.98740    0.83240    1.000
    C401     C        0.85360    0.89830    0.85976    1.000
    C402     C        0.85880    0.81730    0.86125    1.000
    H433     H        0.83350    0.79020    0.87780    1.000
    C403     C        0.90180    0.77720    0.83803    1.000
    H434     H        0.90340    0.72330    0.83920    1.000
    N63      N        0.44200    0.68690    0.49439    1.000
    C404     C        0.43840    0.60940    0.49621    1.000
    H435     H        0.46640    0.58470    0.51260    1.000
    C405     C        0.39560    0.56420    0.47514    1.000
    H436     H        0.39500    0.51050    0.47760    1.000
    C406     C        0.35380    0.59860    0.45042    1.000
    C407     C        0.35750    0.67860    0.44778    1.000
    H437     H        0.33100    0.70410    0.43110    1.000
    C408     C        0.40110    0.72040    0.47022    1.000
    H438     H        0.40210    0.77420    0.46840    1.000
    C409     C        0.30690    0.54890    0.42700    1.000
    H439     H        0.27300    0.51510    0.43950    1.000
    H440     H        0.27450    0.58230    0.41370    1.000
    C410     C        0.35830    0.49910    0.40460    1.000
    H441     H        0.39500    0.46980    0.41770    1.000
    H442     H        0.38760    0.53250    0.39000    1.000
    C411     C        0.30880    0.44380    0.38477    1.000
    H443     H        0.26860    0.47340    0.37380    1.000
    H444     H        0.28340    0.40780    0.39950    1.000
    N64      N        0.44090    0.31200    0.31426    1.000
    C412     C        0.43650    0.39000    0.31243    1.000
    H445     H        0.46290    0.41540    0.29580    1.000
    C413     C        0.39380    0.43360    0.33457    1.000
    H446     H        0.39220    0.48740    0.33240    1.000
    C414     C        0.35360    0.39830    0.35976    1.000
    C415     C        0.35880    0.31730    0.36125    1.000
    H447     H        0.33350    0.29020    0.37780    1.000
    C416     C        0.40180    0.27720    0.33803    1.000
    H448     H        0.40340    0.22330    0.33920    1.000
    Cu13     Cu       0.00000    0.75000    0.77886    1.000
    Cu14     Cu       0.50000    0.25000    0.27886    1.000
    Cu15     Cu       0.50000    0.75000    0.52886    1.000
    Cu16     Cu       0.00000    0.25000    0.02886    1.000
