# CIF file generated by openbabel 3.1.0, see https://openbabel.org
data_I
_chemical_name_common 'image0'
_cell_length_a 21.7777
_cell_length_b 21.7777
_cell_length_c 16.4167
_cell_angle_alpha 90
_cell_angle_beta 90
_cell_angle_gamma 90
_space_group_name_H-M_alt 'P 1'
_space_group_name_Hall 'P 1'
loop_
    _symmetry_equiv_pos_as_xyz
    x,y,z
loop_
    _atom_site_label
    _atom_site_type_symbol
    _atom_site_fract_x
    _atom_site_fract_y
    _atom_site_fract_z
    _atom_site_occupancy
    Eu1      Eu       0.82908    0.63587    0.36874    1.000
    O1       O        0.75170    0.61010    0.26660    1.000
    O2       O        0.72240    0.56940    0.14800    1.000
    O3       O        0.93610    0.61010    0.36620    1.000
    O4       O        0.01970    0.57180    0.30540    1.000
    N1       N        0.86590    0.57960    0.24320    1.000
    C1       C        0.76130    0.58190    0.19900    1.000
    C2       C        0.82720    0.56360    0.18460    1.000
    C3       C        0.84640    0.53120    0.11710    1.000
    H1       H        0.81880    0.52160    0.07580    1.000
    C4       C        0.90670    0.51310    0.11140    1.000
    H2       H        0.92020    0.49000    0.06720    1.000
    C5       C        0.94650    0.52970    0.17190    1.000
    H3       H        0.98770    0.51850    0.16890    1.000
    C6       C        0.92560    0.56280    0.23680    1.000
    C7       C        0.96400    0.58200    0.30640    1.000
    Eu2      Eu       0.32908    0.13587    0.86874    1.000
    O5       O        0.25170    0.11010    0.76660    1.000
    O6       O        0.22240    0.06940    0.64800    1.000
    O7       O        0.43610    0.11010    0.86620    1.000
    O8       O        0.51970    0.07180    0.80540    1.000
    N2       N        0.36590    0.07960    0.74320    1.000
    C8       C        0.26130    0.08190    0.69900    1.000
    C9       C        0.32720    0.06360    0.68460    1.000
    C10      C        0.34640    0.03120    0.61710    1.000
    H4       H        0.31880    0.02160    0.57580    1.000
    C11      C        0.40670    0.01310    0.61140    1.000
    H5       H        0.42020    0.99000    0.56720    1.000
    C12      C        0.44650    0.02970    0.67190    1.000
    H6       H        0.48770    0.01850    0.66890    1.000
    C13      C        0.42560    0.06280    0.73680    1.000
    C14      C        0.46400    0.08200    0.80640    1.000
    Eu3      Eu       0.67092    0.36413    0.86874    1.000
    O9       O        0.74830    0.38990    0.76660    1.000
    O10      O        0.77760    0.43060    0.64800    1.000
    O11      O        0.56390    0.38990    0.86620    1.000
    O12      O        0.48030    0.42820    0.80540    1.000
    N3       N        0.63410    0.42040    0.74320    1.000
    C15      C        0.73870    0.41810    0.69900    1.000
    C16      C        0.67280    0.43640    0.68460    1.000
    C17      C        0.65360    0.46880    0.61710    1.000
    H7       H        0.68120    0.47840    0.57580    1.000
    C18      C        0.59330    0.48690    0.61140    1.000
    H8       H        0.57980    0.51000    0.56720    1.000
    C19      C        0.55350    0.47030    0.67190    1.000
    H9       H        0.51230    0.48150    0.66890    1.000
    C20      C        0.57440    0.43720    0.73680    1.000
    C21      C        0.53600    0.41800    0.80640    1.000
    Eu4      Eu       0.17092    0.86413    0.36874    1.000
    O13      O        0.24830    0.88990    0.26660    1.000
    O14      O        0.27760    0.93060    0.14800    1.000
    O15      O        0.06390    0.88990    0.36620    1.000
    O16      O        0.98030    0.92820    0.30540    1.000
    N4       N        0.13410    0.92040    0.24320    1.000
    C22      C        0.23870    0.91810    0.19900    1.000
    C23      C        0.17280    0.93640    0.18460    1.000
    C24      C        0.15360    0.96880    0.11710    1.000
    H10      H        0.18120    0.97840    0.07580    1.000
    C25      C        0.09330    0.98690    0.11140    1.000
    H11      H        0.07980    0.01000    0.06720    1.000
    C26      C        0.05350    0.97030    0.17190    1.000
    H12      H        0.01230    0.98150    0.16890    1.000
    C27      C        0.07440    0.93720    0.23680    1.000
    C28      C        0.03600    0.91800    0.30640    1.000
    Eu5      Eu       0.11413    0.07908    0.61874    1.000
    O17      O        0.13990    0.00170    0.51660    1.000
    O18      O        0.18060    0.97240    0.39800    1.000
    O19      O        0.13990    0.18610    0.61620    1.000
    O20      O        0.17820    0.26970    0.55540    1.000
    N5       N        0.17040    0.11590    0.49320    1.000
    C29      C        0.16810    0.01130    0.44900    1.000
    C30      C        0.18640    0.07720    0.43460    1.000
    C31      C        0.21880    0.09640    0.36710    1.000
    H13      H        0.22840    0.06880    0.32580    1.000
    C32      C        0.23690    0.15670    0.36140    1.000
    H14      H        0.26000    0.17020    0.31720    1.000
    C33      C        0.22030    0.19650    0.42190    1.000
    H15      H        0.23150    0.23770    0.41890    1.000
    C34      C        0.18720    0.17560    0.48680    1.000
    C35      C        0.16800    0.21400    0.55640    1.000
    Eu6      Eu       0.61413    0.57908    0.11874    1.000
    O21      O        0.63990    0.50170    0.01660    1.000
    O22      O        0.68060    0.47240    0.89800    1.000
    O23      O        0.63990    0.68610    0.11620    1.000
    O24      O        0.67820    0.76970    0.05540    1.000
    N6       N        0.67040    0.61590    0.99320    1.000
    C36      C        0.66810    0.51130    0.94900    1.000
    C37      C        0.68640    0.57720    0.93460    1.000
    C38      C        0.71880    0.59640    0.86710    1.000
    H16      H        0.72840    0.56880    0.82580    1.000
    C39      C        0.73690    0.65670    0.86140    1.000
    H17      H        0.76000    0.67020    0.81720    1.000
    C40      C        0.72030    0.69650    0.92190    1.000
    H18      H        0.73150    0.73770    0.91890    1.000
    C41      C        0.68720    0.67560    0.98680    1.000
    C42      C        0.66800    0.71400    0.05640    1.000
    Eu7      Eu       0.38587    0.92092    0.11874    1.000
    O25      O        0.36010    0.99830    0.01660    1.000
    O26      O        0.31940    0.02760    0.89800    1.000
    O27      O        0.36010    0.81390    0.11620    1.000
    O28      O        0.32180    0.73030    0.05540    1.000
    N7       N        0.32960    0.88410    0.99320    1.000
    C43      C        0.33190    0.98870    0.94900    1.000
    C44      C        0.31360    0.92280    0.93460    1.000
    C45      C        0.28120    0.90360    0.86710    1.000
    H19      H        0.27160    0.93120    0.82580    1.000
    C46      C        0.26310    0.84330    0.86140    1.000
    H20      H        0.24000    0.82980    0.81720    1.000
    C47      C        0.27970    0.80350    0.92190    1.000
    H21      H        0.26850    0.76230    0.91890    1.000
    C48      C        0.31280    0.82440    0.98680    1.000
    C49      C        0.33200    0.78600    0.05640    1.000
    Eu8      Eu       0.88587    0.42092    0.61874    1.000
    O29      O        0.86010    0.49830    0.51660    1.000
    O30      O        0.81940    0.52760    0.39800    1.000
    O31      O        0.86010    0.31390    0.61620    1.000
    O32      O        0.82180    0.23030    0.55540    1.000
    N8       N        0.82960    0.38410    0.49320    1.000
    C50      C        0.83190    0.48870    0.44900    1.000
    C51      C        0.81360    0.42280    0.43460    1.000
    C52      C        0.78120    0.40360    0.36710    1.000
    H22      H        0.77160    0.43120    0.32580    1.000
    C53      C        0.76310    0.34330    0.36140    1.000
    H23      H        0.74000    0.32980    0.31720    1.000
    C54      C        0.77970    0.30350    0.42190    1.000
    H24      H        0.76850    0.26230    0.41890    1.000
    C55      C        0.81280    0.32440    0.48680    1.000
    C56      C        0.83200    0.28600    0.55640    1.000
    Eu9      Eu       0.17092    0.36413    0.63126    1.000
    O33      O        0.24830    0.38990    0.73340    1.000
    O34      O        0.27760    0.43060    0.85200    1.000
    O35      O        0.06390    0.38990    0.63380    1.000
    O36      O        0.98030    0.42820    0.69460    1.000
    N9       N        0.13410    0.42040    0.75680    1.000
    C57      C        0.23870    0.41810    0.80100    1.000
    C58      C        0.17280    0.43640    0.81540    1.000
    C59      C        0.15360    0.46880    0.88290    1.000
    H25      H        0.18120    0.47840    0.92420    1.000
    C60      C        0.09330    0.48690    0.88860    1.000
    H26      H        0.07980    0.51000    0.93280    1.000
    C61      C        0.05350    0.47030    0.82810    1.000
    H27      H        0.01230    0.48150    0.83110    1.000
    C62      C        0.07440    0.43720    0.76320    1.000
    C63      C        0.03600    0.41800    0.69360    1.000
    Eu10     Eu       0.67092    0.86413    0.13126    1.000
    O37      O        0.74830    0.88990    0.23340    1.000
    O38      O        0.77760    0.93060    0.35200    1.000
    O39      O        0.56390    0.88990    0.13380    1.000
    O40      O        0.48030    0.92820    0.19460    1.000
    N10      N        0.63410    0.92040    0.25680    1.000
    C64      C        0.73870    0.91810    0.30100    1.000
    C65      C        0.67280    0.93640    0.31540    1.000
    C66      C        0.65360    0.96880    0.38290    1.000
    H28      H        0.68120    0.97840    0.42420    1.000
    C67      C        0.59330    0.98690    0.38860    1.000
    H29      H        0.57980    0.01000    0.43280    1.000
    C68      C        0.55350    0.97030    0.32810    1.000
    H30      H        0.51230    0.98150    0.33110    1.000
    C69      C        0.57440    0.93720    0.26320    1.000
    C70      C        0.53600    0.91800    0.19360    1.000
    Eu11     Eu       0.32908    0.63587    0.13126    1.000
    O41      O        0.25170    0.61010    0.23340    1.000
    O42      O        0.22240    0.56940    0.35200    1.000
    O43      O        0.43610    0.61010    0.13380    1.000
    O44      O        0.51970    0.57180    0.19460    1.000
    N11      N        0.36590    0.57960    0.25680    1.000
    C71      C        0.26130    0.58190    0.30100    1.000
    C72      C        0.32720    0.56360    0.31540    1.000
    C73      C        0.34640    0.53120    0.38290    1.000
    H31      H        0.31880    0.52160    0.42420    1.000
    C74      C        0.40670    0.51310    0.38860    1.000
    H32      H        0.42020    0.49000    0.43280    1.000
    C75      C        0.44650    0.52970    0.32810    1.000
    H33      H        0.48770    0.51850    0.33110    1.000
    C76      C        0.42560    0.56280    0.26320    1.000
    C77      C        0.46400    0.58200    0.19360    1.000
    Eu12     Eu       0.82908    0.13587    0.63126    1.000
    O45      O        0.75170    0.11010    0.73340    1.000
    O46      O        0.72240    0.06940    0.85200    1.000
    O47      O        0.93610    0.11010    0.63380    1.000
    O48      O        0.01970    0.07180    0.69460    1.000
    N12      N        0.86590    0.07960    0.75680    1.000
    C78      C        0.76130    0.08190    0.80100    1.000
    C79      C        0.82720    0.06360    0.81540    1.000
    C80      C        0.84640    0.03120    0.88290    1.000
    H34      H        0.81880    0.02160    0.92420    1.000
    C81      C        0.90670    0.01310    0.88860    1.000
    H35      H        0.92020    0.99000    0.93280    1.000
    C82      C        0.94650    0.02970    0.82810    1.000
    H36      H        0.98770    0.01850    0.83110    1.000
    C83      C        0.92560    0.06280    0.76320    1.000
    C84      C        0.96400    0.08200    0.69360    1.000
    Eu13     Eu       0.88587    0.92092    0.38126    1.000
    O49      O        0.86010    0.99830    0.48340    1.000
    O50      O        0.81940    0.02760    0.60200    1.000
    O51      O        0.86010    0.81390    0.38380    1.000
    O52      O        0.82180    0.73030    0.44460    1.000
    N13      N        0.82960    0.88410    0.50680    1.000
    C85      C        0.83190    0.98870    0.55100    1.000
    C86      C        0.81360    0.92280    0.56540    1.000
    C87      C        0.78120    0.90360    0.63290    1.000
    H37      H        0.77160    0.93120    0.67420    1.000
    C88      C        0.76310    0.84330    0.63860    1.000
    H38      H        0.74000    0.82980    0.68280    1.000
    C89      C        0.77970    0.80350    0.57810    1.000
    H39      H        0.76850    0.76230    0.58110    1.000
    C90      C        0.81280    0.82440    0.51320    1.000
    C91      C        0.83200    0.78600    0.44360    1.000
    Eu14     Eu       0.38587    0.42092    0.88126    1.000
    O53      O        0.36010    0.49830    0.98340    1.000
    O54      O        0.31940    0.52760    0.10200    1.000
    O55      O        0.36010    0.31390    0.88380    1.000
    O56      O        0.32180    0.23030    0.94460    1.000
    N14      N        0.32960    0.38410    0.00680    1.000
    C92      C        0.33190    0.48870    0.05100    1.000
    C93      C        0.31360    0.42280    0.06540    1.000
    C94      C        0.28120    0.40360    0.13290    1.000
    H40      H        0.27160    0.43120    0.17420    1.000
    C95      C        0.26310    0.34330    0.13860    1.000
    H41      H        0.24000    0.32980    0.18280    1.000
    C96      C        0.27970    0.30350    0.07810    1.000
    H42      H        0.26850    0.26230    0.08110    1.000
    C97      C        0.31280    0.32440    0.01320    1.000
    C98      C        0.33200    0.28600    0.94360    1.000
    Eu15     Eu       0.61413    0.07908    0.88126    1.000
    O57      O        0.63990    0.00170    0.98340    1.000
    O58      O        0.68060    0.97240    0.10200    1.000
    O59      O        0.63990    0.18610    0.88380    1.000
    O60      O        0.67820    0.26970    0.94460    1.000
    N15      N        0.67040    0.11590    0.00680    1.000
    C99      C        0.66810    0.01130    0.05100    1.000
    C100     C        0.68640    0.07720    0.06540    1.000
    C101     C        0.71880    0.09640    0.13290    1.000
    H43      H        0.72840    0.06880    0.17420    1.000
    C102     C        0.73690    0.15670    0.13860    1.000
    H44      H        0.76000    0.17020    0.18280    1.000
    C103     C        0.72030    0.19650    0.07810    1.000
    H45      H        0.73150    0.23770    0.08110    1.000
    C104     C        0.68720    0.17560    0.01320    1.000
    C105     C        0.66800    0.21400    0.94360    1.000
    Eu16     Eu       0.11413    0.57908    0.38126    1.000
    O61      O        0.13990    0.50170    0.48340    1.000
    O62      O        0.18060    0.47240    0.60200    1.000
    O63      O        0.13990    0.68610    0.38380    1.000
    O64      O        0.17820    0.76970    0.44460    1.000
    N16      N        0.17040    0.61590    0.50680    1.000
    C106     C        0.16810    0.51130    0.55100    1.000
    C107     C        0.18640    0.57720    0.56540    1.000
    C108     C        0.21880    0.59640    0.63290    1.000
    H46      H        0.22840    0.56880    0.67420    1.000
    C109     C        0.23690    0.65670    0.63860    1.000
    H47      H        0.26000    0.67020    0.68280    1.000
    C110     C        0.22030    0.69650    0.57810    1.000
    H48      H        0.23150    0.73770    0.58110    1.000
    C111     C        0.18720    0.67560    0.51320    1.000
    C112     C        0.16800    0.71400    0.44360    1.000
