# CIF file generated by openbabel 3.1.0, see https://openbabel.org
data_I
_chemical_name_common 'image0'
_cell_length_a 54.78
_cell_length_b 16.07
_cell_length_c 12.328
_cell_angle_alpha 90
_cell_angle_beta 96.78
_cell_angle_gamma 90
_space_group_name_H-M_alt 'P 1'
_space_group_name_Hall 'P 1'
loop_
    _symmetry_equiv_pos_as_xyz
    x,y,z
loop_
    _atom_site_label
    _atom_site_type_symbol
    _atom_site_fract_x
    _atom_site_fract_y
    _atom_site_fract_z
    _atom_site_occupancy
    Nd1      Nd       0.77168    0.02422    0.38384    1.000
    Nd2      Nd       0.90423    0.05331    0.18013    1.000
    Nd3      Nd       0.82821    0.33880    0.21386    1.000
    N1       N        0.81638    0.05450    0.48810    1.000
    C1       C        0.81914    0.03340    0.59450    1.000
    C2       C        0.84230    0.01820    0.65120    1.000
    H1       H        0.84370    0.00790    0.72590    1.000
    N2       N        0.86231    0.01820    0.60040    1.000
    C3       C        0.85945    0.03980    0.49510    1.000
    C4       C        0.83672    0.06220    0.44110    1.000
    H2       H        0.83580    0.08300    0.37040    1.000
    C5       C        0.79610    0.01680    0.64660    1.000
    O1       O        0.77610    0.01460    0.58350    1.000
    O2       O        0.79870    0.00200    0.74600    1.000
    C6       C        0.88239    0.03440    0.43690    1.000
    O3       O        0.90126    0.00540    0.49310    1.000
    O4       O        0.88071    0.05510    0.33870    1.000
    N3       N        0.75778    0.17230    0.46770    1.000
    C7       C        0.76572    0.24240    0.42720    1.000
    C8       C        0.75785    0.32070    0.45800    1.000
    H3       H        0.76360    0.36830    0.42630    1.000
    C9       C        0.78463    0.23230    0.34740    1.000
    O5       O        0.78919    0.15760    0.32240    1.000
    O6       O        0.79459    0.29630    0.31470    1.000
    N4       N        0.83320    0.47270    0.08130    1.000
    C10      C        0.81098    0.49930    0.03370    1.000
    C11      C        0.80884    0.53990    0.93340    1.000
    H4       H        0.79340    0.55660    0.90170    1.000
    N5       N        0.82841    0.55540    0.88120    1.000
    C12      C        0.85011    0.52940    0.93030    1.000
    C13      C        0.85265    0.48880    0.03040    1.000
    H5       H        0.86820    0.47260    0.06200    1.000
    C14      C        0.78924    0.47810    0.09170    1.000
    O7       O        0.76914    0.51040    0.05620    1.000
    O8       O        0.79322    0.42990    0.17220    1.000
    C15      C        0.87141    0.54270    0.86580    1.000
    O9       O        0.86732    0.58570    0.78030    1.000
    O10      O        0.89127    0.50690    0.89920    1.000
    N6       N        0.90854    0.17490    0.02650    1.000
    C16      C        0.89392    0.23990    0.03320    1.000
    C17      C        0.89730    0.31480    0.97820    1.000
    H6       H        0.88610    0.35800    0.98130    1.000
    N7       N        0.91634    0.32490    0.92160    1.000
    C18      C        0.93052    0.25830    0.91520    1.000
    C19      C        0.92663    0.18320    0.96290    1.000
    H7       H        0.93660    0.13800    0.95110    1.000
    C20      C        0.87355    0.23110    0.10550    1.000
    O11      O        0.87101    0.15930    0.14570    1.000
    O12      O        0.86119    0.29420    0.11950    1.000
    C21      C        0.95266    0.27140    0.85200    1.000
    O13      O        0.95576    0.34440    0.81840    1.000
    O14      O        0.96608    0.20960    0.84220    1.000
    N8       N        0.99945    0.93640    0.07520    1.000
    C22      C        0.98330    0.99900    0.06970    1.000
    C23      C        0.98430    0.06290    0.99520    1.000
    H8       H        0.97310    0.10650    0.99480    1.000
    C24      C        0.96397    0.99590    0.14700    1.000
    O15      O        0.96806    0.94590    0.22520    1.000
    O16      O        0.94543    0.04120    0.12550    1.000
    O17      O        0.90770    0.90700    0.22690    1.000
    O18      O        0.96380    0.81450    0.09800    1.000
    Nd4      Nd       0.93094    0.47201    0.84031    1.000
    N9       N        0.97701    0.49060    0.94050    1.000
    C25      C        0.97961    0.49450    0.04850    1.000
    C26      C        0.99730    0.49550    0.89350    1.000
    H9       H        0.99610    0.49210    0.81780    1.000
    C27      C        0.95650    0.48820    0.10140    1.000
    O19      O        0.93724    0.46820    0.04080    1.000
    O20      O        0.95796    0.50310    0.20120    1.000
    O21      O        0.94320    0.62040    0.88490    1.000
    O22      O        0.90370    0.40270    0.70130    1.000
    O23      O        0.91190    0.89100    0.16900    1.000
    N10      N        0.90010    0.86600    0.22200    1.000
    O24      O        0.88820    0.91100    0.27100    1.000
    O25      O        0.89870    0.78100    0.23000    1.000
    O26      O        0.88930    0.59500    0.23700    1.000
    N11      N        0.89800    0.61500    0.16800    1.000
    O27      O        0.91820    0.60950    0.15500    1.000
    O28      O        0.88160    0.65100    0.07500    1.000
    O29      O        0.93590    0.38720    0.42630    1.000
    O30      O        0.97690    0.76200    0.10780    1.000
    O31      O        0.00550    0.68310    0.30390    1.000
    Nd5      Nd       0.27168    0.52422    0.38384    1.000
    Nd6      Nd       0.40423    0.55331    0.18013    1.000
    Nd7      Nd       0.32821    0.83880    0.21386    1.000
    N12      N        0.31638    0.55450    0.48810    1.000
    C28      C        0.31914    0.53340    0.59450    1.000
    C29      C        0.34230    0.51820    0.65120    1.000
    H10      H        0.34370    0.50790    0.72590    1.000
    N13      N        0.36231    0.51820    0.60040    1.000
    C30      C        0.35945    0.53980    0.49510    1.000
    C31      C        0.33672    0.56220    0.44110    1.000
    H11      H        0.33580    0.58300    0.37040    1.000
    C32      C        0.29610    0.51680    0.64660    1.000
    O32      O        0.27610    0.51460    0.58350    1.000
    O33      O        0.29870    0.50200    0.74600    1.000
    C33      C        0.38239    0.53440    0.43690    1.000
    O34      O        0.40126    0.50540    0.49310    1.000
    O35      O        0.38071    0.55510    0.33870    1.000
    N14      N        0.25778    0.67230    0.46770    1.000
    C34      C        0.26572    0.74240    0.42720    1.000
    C35      C        0.25785    0.82070    0.45800    1.000
    H12      H        0.26360    0.86830    0.42630    1.000
    C36      C        0.28463    0.73230    0.34740    1.000
    O36      O        0.28919    0.65760    0.32240    1.000
    O37      O        0.29459    0.79630    0.31470    1.000
    N15      N        0.33320    0.97270    0.08130    1.000
    C37      C        0.31098    0.99930    0.03370    1.000
    C38      C        0.30884    0.03990    0.93340    1.000
    H13      H        0.29340    0.05660    0.90170    1.000
    N16      N        0.32841    0.05540    0.88120    1.000
    C39      C        0.35011    0.02940    0.93030    1.000
    C40      C        0.35265    0.98880    0.03040    1.000
    H14      H        0.36820    0.97260    0.06200    1.000
    C41      C        0.28924    0.97810    0.09170    1.000
    O38      O        0.26914    0.01040    0.05620    1.000
    O39      O        0.29322    0.92990    0.17220    1.000
    C42      C        0.37141    0.04270    0.86580    1.000
    O40      O        0.36732    0.08570    0.78030    1.000
    O41      O        0.39127    0.00690    0.89920    1.000
    N17      N        0.40854    0.67490    0.02650    1.000
    C43      C        0.39392    0.73990    0.03320    1.000
    C44      C        0.39730    0.81480    0.97820    1.000
    H15      H        0.38610    0.85800    0.98130    1.000
    N18      N        0.41634    0.82490    0.92160    1.000
    C45      C        0.43052    0.75830    0.91520    1.000
    C46      C        0.42663    0.68320    0.96290    1.000
    H16      H        0.43660    0.63800    0.95110    1.000
    C47      C        0.37355    0.73110    0.10550    1.000
    O42      O        0.37101    0.65930    0.14570    1.000
    O43      O        0.36119    0.79420    0.11950    1.000
    C48      C        0.45266    0.77140    0.85200    1.000
    O44      O        0.45576    0.84440    0.81840    1.000
    O45      O        0.46608    0.70960    0.84220    1.000
    N19      N        0.49945    0.43640    0.07520    1.000
    C49      C        0.48330    0.49900    0.06970    1.000
    C50      C        0.48430    0.56290    0.99520    1.000
    H17      H        0.47310    0.60650    0.99480    1.000
    C51      C        0.46397    0.49590    0.14700    1.000
    O46      O        0.46806    0.44590    0.22520    1.000
    O47      O        0.44543    0.54120    0.12550    1.000
    O48      O        0.40770    0.40700    0.22690    1.000
    O49      O        0.46380    0.31450    0.09800    1.000
    Nd8      Nd       0.43094    0.97201    0.84031    1.000
    N20      N        0.47701    0.99060    0.94050    1.000
    C52      C        0.47961    0.99450    0.04850    1.000
    C53      C        0.49730    0.99550    0.89350    1.000
    H18      H        0.49610    0.99210    0.81780    1.000
    C54      C        0.45650    0.98820    0.10140    1.000
    O50      O        0.43724    0.96820    0.04080    1.000
    O51      O        0.45796    0.00310    0.20120    1.000
    O52      O        0.44320    0.12040    0.88490    1.000
    O53      O        0.40370    0.90270    0.70130    1.000
    O54      O        0.41190    0.39100    0.16900    1.000
    N21      N        0.40010    0.36600    0.22200    1.000
    O55      O        0.38820    0.41100    0.27100    1.000
    O56      O        0.39870    0.28100    0.23000    1.000
    O57      O        0.38930    0.09500    0.23700    1.000
    N22      N        0.39800    0.11500    0.16800    1.000
    O58      O        0.41820    0.10950    0.15500    1.000
    O59      O        0.38160    0.15100    0.07500    1.000
    O60      O        0.43590    0.88720    0.42630    1.000
    O61      O        0.47690    0.26200    0.10780    1.000
    O62      O        0.50550    0.18310    0.30390    1.000
    Nd9      Nd       0.22832    0.02422    0.11616    1.000
    Nd10     Nd       0.09577    0.05331    0.31987    1.000
    Nd11     Nd       0.17179    0.33880    0.28614    1.000
    N23      N        0.18362    0.05450    0.01190    1.000
    C55      C        0.18086    0.03340    0.90550    1.000
    C56      C        0.15770    0.01820    0.84880    1.000
    H19      H        0.15630    0.00790    0.77410    1.000
    N24      N        0.13769    0.01820    0.89960    1.000
    C57      C        0.14055    0.03980    0.00490    1.000
    C58      C        0.16328    0.06220    0.05890    1.000
    H20      H        0.16420    0.08300    0.12960    1.000
    C59      C        0.20390    0.01680    0.85340    1.000
    O63      O        0.22390    0.01460    0.91650    1.000
    O64      O        0.20130    0.00200    0.75400    1.000
    C60      C        0.11761    0.03440    0.06310    1.000
    O65      O        0.09874    0.00540    0.00690    1.000
    O66      O        0.11929    0.05510    0.16130    1.000
    N25      N        0.24222    0.17230    0.03230    1.000
    C61      C        0.23428    0.24240    0.07280    1.000
    C62      C        0.24215    0.32070    0.04200    1.000
    H21      H        0.23640    0.36830    0.07370    1.000
    C63      C        0.21537    0.23230    0.15260    1.000
    O67      O        0.21081    0.15760    0.17760    1.000
    O68      O        0.20541    0.29630    0.18530    1.000
    N26      N        0.16680    0.47270    0.41870    1.000
    C64      C        0.18902    0.49930    0.46630    1.000
    C65      C        0.19116    0.53990    0.56660    1.000
    H22      H        0.20660    0.55660    0.59830    1.000
    N27      N        0.17159    0.55540    0.61880    1.000
    C66      C        0.14989    0.52940    0.56970    1.000
    C67      C        0.14735    0.48880    0.46960    1.000
    H23      H        0.13180    0.47260    0.43800    1.000
    C68      C        0.21076    0.47810    0.40830    1.000
    O69      O        0.23086    0.51040    0.44380    1.000
    O70      O        0.20678    0.42990    0.32780    1.000
    C69      C        0.12859    0.54270    0.63420    1.000
    O71      O        0.13268    0.58570    0.71970    1.000
    O72      O        0.10873    0.50690    0.60080    1.000
    N28      N        0.09146    0.17490    0.47350    1.000
    C70      C        0.10608    0.23990    0.46680    1.000
    C71      C        0.10270    0.31480    0.52180    1.000
    H24      H        0.11390    0.35800    0.51870    1.000
    N29      N        0.08366    0.32490    0.57840    1.000
    C72      C        0.06948    0.25830    0.58480    1.000
    C73      C        0.07337    0.18320    0.53710    1.000
    H25      H        0.06340    0.13800    0.54890    1.000
    C74      C        0.12645    0.23110    0.39450    1.000
    O73      O        0.12899    0.15930    0.35430    1.000
    O74      O        0.13881    0.29420    0.38050    1.000
    C75      C        0.04734    0.27140    0.64800    1.000
    O75      O        0.04424    0.34440    0.68160    1.000
    O76      O        0.03392    0.20960    0.65780    1.000
    N30      N        0.00055    0.93640    0.42480    1.000
    C76      C        0.01670    0.99900    0.43030    1.000
    C77      C        0.01570    0.06290    0.50480    1.000
    H26      H        0.02690    0.10650    0.50520    1.000
    C78      C        0.03603    0.99590    0.35300    1.000
    O77      O        0.03194    0.94590    0.27480    1.000
    O78      O        0.05457    0.04120    0.37450    1.000
    O79      O        0.09230    0.90700    0.27310    1.000
    O80      O        0.03620    0.81450    0.40200    1.000
    Nd12     Nd       0.06906    0.47201    0.65969    1.000
    N31      N        0.02299    0.49060    0.55950    1.000
    C79      C        0.02039    0.49450    0.45150    1.000
    C80      C        0.00270    0.49550    0.60650    1.000
    H27      H        0.00390    0.49210    0.68220    1.000
    C81      C        0.04350    0.48820    0.39860    1.000
    O81      O        0.06276    0.46820    0.45920    1.000
    O82      O        0.04204    0.50310    0.29880    1.000
    O83      O        0.05680    0.62040    0.61510    1.000
    O84      O        0.09630    0.40270    0.79870    1.000
    O85      O        0.08810    0.89100    0.33100    1.000
    N32      N        0.09990    0.86600    0.27800    1.000
    O86      O        0.11180    0.91100    0.22900    1.000
    O87      O        0.10130    0.78100    0.27000    1.000
    O88      O        0.11070    0.59500    0.26300    1.000
    N33      N        0.10200    0.61500    0.33200    1.000
    O89      O        0.08180    0.60950    0.34500    1.000
    O90      O        0.11840    0.65100    0.42500    1.000
    O91      O        0.06410    0.38720    0.07370    1.000
    O92      O        0.02310    0.76200    0.39220    1.000
    O93      O        0.99450    0.68310    0.19610    1.000
    Nd13     Nd       0.72832    0.52422    0.11616    1.000
    Nd14     Nd       0.59577    0.55331    0.31987    1.000
    Nd15     Nd       0.67179    0.83880    0.28614    1.000
    N34      N        0.68362    0.55450    0.01190    1.000
    C82      C        0.68086    0.53340    0.90550    1.000
    C83      C        0.65770    0.51820    0.84880    1.000
    H28      H        0.65630    0.50790    0.77410    1.000
    N35      N        0.63769    0.51820    0.89960    1.000
    C84      C        0.64055    0.53980    0.00490    1.000
    C85      C        0.66328    0.56220    0.05890    1.000
    H29      H        0.66420    0.58300    0.12960    1.000
    C86      C        0.70390    0.51680    0.85340    1.000
    O94      O        0.72390    0.51460    0.91650    1.000
    O95      O        0.70130    0.50200    0.75400    1.000
    C87      C        0.61761    0.53440    0.06310    1.000
    O96      O        0.59874    0.50540    0.00690    1.000
    O97      O        0.61929    0.55510    0.16130    1.000
    N36      N        0.74222    0.67230    0.03230    1.000
    C88      C        0.73428    0.74240    0.07280    1.000
    C89      C        0.74215    0.82070    0.04200    1.000
    H30      H        0.73640    0.86830    0.07370    1.000
    C90      C        0.71537    0.73230    0.15260    1.000
    O98      O        0.71081    0.65760    0.17760    1.000
    O99      O        0.70541    0.79630    0.18530    1.000
    N37      N        0.66680    0.97270    0.41870    1.000
    C91      C        0.68902    0.99930    0.46630    1.000
    C92      C        0.69116    0.03990    0.56660    1.000
    H31      H        0.70660    0.05660    0.59830    1.000
    N38      N        0.67159    0.05540    0.61880    1.000
    C93      C        0.64989    0.02940    0.56970    1.000
    C94      C        0.64735    0.98880    0.46960    1.000
    H32      H        0.63180    0.97260    0.43800    1.000
    C95      C        0.71076    0.97810    0.40830    1.000
    O100     O        0.73086    0.01040    0.44380    1.000
    O101     O        0.70678    0.92990    0.32780    1.000
    C96      C        0.62859    0.04270    0.63420    1.000
    O102     O        0.63268    0.08570    0.71970    1.000
    O103     O        0.60873    0.00690    0.60080    1.000
    N39      N        0.59146    0.67490    0.47350    1.000
    C97      C        0.60608    0.73990    0.46680    1.000
    C98      C        0.60270    0.81480    0.52180    1.000
    H33      H        0.61390    0.85800    0.51870    1.000
    N40      N        0.58366    0.82490    0.57840    1.000
    C99      C        0.56948    0.75830    0.58480    1.000
    C100     C        0.57337    0.68320    0.53710    1.000
    H34      H        0.56340    0.63800    0.54890    1.000
    C101     C        0.62645    0.73110    0.39450    1.000
    O104     O        0.62899    0.65930    0.35430    1.000
    O105     O        0.63881    0.79420    0.38050    1.000
    C102     C        0.54734    0.77140    0.64800    1.000
    O106     O        0.54424    0.84440    0.68160    1.000
    O107     O        0.53392    0.70960    0.65780    1.000
    N41      N        0.50055    0.43640    0.42480    1.000
    C103     C        0.51670    0.49900    0.43030    1.000
    C104     C        0.51570    0.56290    0.50480    1.000
    H35      H        0.52690    0.60650    0.50520    1.000
    C105     C        0.53603    0.49590    0.35300    1.000
    O108     O        0.53194    0.44590    0.27480    1.000
    O109     O        0.55457    0.54120    0.37450    1.000
    O110     O        0.59230    0.40700    0.27310    1.000
    O111     O        0.53620    0.31450    0.40200    1.000
    Nd16     Nd       0.56906    0.97201    0.65969    1.000
    N42      N        0.52299    0.99060    0.55950    1.000
    C106     C        0.52039    0.99450    0.45150    1.000
    C107     C        0.50270    0.99550    0.60650    1.000
    H36      H        0.50390    0.99210    0.68220    1.000
    C108     C        0.54350    0.98820    0.39860    1.000
    O112     O        0.56276    0.96820    0.45920    1.000
    O113     O        0.54204    0.00310    0.29880    1.000
    O114     O        0.55680    0.12040    0.61510    1.000
    O115     O        0.59630    0.90270    0.79870    1.000
    O116     O        0.58810    0.39100    0.33100    1.000
    N43      N        0.59990    0.36600    0.27800    1.000
    O117     O        0.61180    0.41100    0.22900    1.000
    O118     O        0.60130    0.28100    0.27000    1.000
    O119     O        0.61070    0.09500    0.26300    1.000
    N44      N        0.60200    0.11500    0.33200    1.000
    O120     O        0.58180    0.10950    0.34500    1.000
    O121     O        0.61840    0.15100    0.42500    1.000
    O122     O        0.56410    0.88720    0.07370    1.000
    O123     O        0.52310    0.26200    0.39220    1.000
    O124     O        0.49450    0.18310    0.19610    1.000
    Nd17     Nd       0.22832    0.97578    0.61616    1.000
    Nd18     Nd       0.09577    0.94669    0.81987    1.000
    Nd19     Nd       0.17179    0.66120    0.78614    1.000
    N45      N        0.18362    0.94550    0.51190    1.000
    C109     C        0.18086    0.96660    0.40550    1.000
    C110     C        0.15770    0.98180    0.34880    1.000
    H37      H        0.15630    0.99210    0.27410    1.000
    N46      N        0.13769    0.98180    0.39960    1.000
    C111     C        0.14055    0.96020    0.50490    1.000
    C112     C        0.16328    0.93780    0.55890    1.000
    H38      H        0.16420    0.91700    0.62960    1.000
    C113     C        0.20390    0.98320    0.35340    1.000
    O125     O        0.22390    0.98540    0.41650    1.000
    O126     O        0.20130    0.99800    0.25400    1.000
    C114     C        0.11761    0.96560    0.56310    1.000
    O127     O        0.09874    0.99460    0.50690    1.000
    O128     O        0.11929    0.94490    0.66130    1.000
    N47      N        0.24222    0.82770    0.53230    1.000
    C115     C        0.23428    0.75760    0.57280    1.000
    C116     C        0.24215    0.67930    0.54200    1.000
    H39      H        0.23640    0.63170    0.57370    1.000
    C117     C        0.21537    0.76770    0.65260    1.000
    O129     O        0.21081    0.84240    0.67760    1.000
    O130     O        0.20541    0.70370    0.68530    1.000
    N48      N        0.16680    0.52730    0.91870    1.000
    C118     C        0.18902    0.50070    0.96630    1.000
    C119     C        0.19116    0.46010    0.06660    1.000
    H40      H        0.20660    0.44340    0.09830    1.000
    N49      N        0.17159    0.44460    0.11880    1.000
    C120     C        0.14989    0.47060    0.06970    1.000
    C121     C        0.14735    0.51120    0.96960    1.000
    H41      H        0.13180    0.52740    0.93800    1.000
    C122     C        0.21076    0.52190    0.90830    1.000
    O131     O        0.23086    0.48960    0.94380    1.000
    O132     O        0.20678    0.57010    0.82780    1.000
    C123     C        0.12859    0.45730    0.13420    1.000
    O133     O        0.13268    0.41430    0.21970    1.000
    O134     O        0.10873    0.49310    0.10080    1.000
    N50      N        0.09146    0.82510    0.97350    1.000
    C124     C        0.10608    0.76010    0.96680    1.000
    C125     C        0.10270    0.68520    0.02180    1.000
    H42      H        0.11390    0.64200    0.01870    1.000
    N51      N        0.08366    0.67510    0.07840    1.000
    C126     C        0.06948    0.74170    0.08480    1.000
    C127     C        0.07337    0.81680    0.03710    1.000
    H43      H        0.06340    0.86200    0.04890    1.000
    C128     C        0.12645    0.76890    0.89450    1.000
    O135     O        0.12899    0.84070    0.85430    1.000
    O136     O        0.13881    0.70580    0.88050    1.000
    C129     C        0.04734    0.72860    0.14800    1.000
    O137     O        0.04424    0.65560    0.18160    1.000
    O138     O        0.03392    0.79040    0.15780    1.000
    N52      N        0.00055    0.06360    0.92480    1.000
    C130     C        0.01670    0.00100    0.93030    1.000
    C131     C        0.01570    0.93710    0.00480    1.000
    H44      H        0.02690    0.89350    0.00520    1.000
    C132     C        0.03603    0.00410    0.85300    1.000
    O139     O        0.03194    0.05410    0.77480    1.000
    O140     O        0.05457    0.95880    0.87450    1.000
    O141     O        0.09230    0.09300    0.77310    1.000
    O142     O        0.03620    0.18550    0.90200    1.000
    Nd20     Nd       0.06906    0.52799    0.15969    1.000
    N53      N        0.02299    0.50940    0.05950    1.000
    C133     C        0.02039    0.50550    0.95150    1.000
    C134     C        0.00270    0.50450    0.10650    1.000
    H45      H        0.00390    0.50790    0.18220    1.000
    C135     C        0.04350    0.51180    0.89860    1.000
    O143     O        0.06276    0.53180    0.95920    1.000
    O144     O        0.04204    0.49690    0.79880    1.000
    O145     O        0.05680    0.37960    0.11510    1.000
    O146     O        0.09630    0.59730    0.29870    1.000
    O147     O        0.08810    0.10900    0.83100    1.000
    N54      N        0.09990    0.13400    0.77800    1.000
    O148     O        0.11180    0.08900    0.72900    1.000
    O149     O        0.10130    0.21900    0.77000    1.000
    O150     O        0.11070    0.40500    0.76300    1.000
    N55      N        0.10200    0.38500    0.83200    1.000
    O151     O        0.08180    0.39050    0.84500    1.000
    O152     O        0.11840    0.34900    0.92500    1.000
    O153     O        0.06410    0.61280    0.57370    1.000
    O154     O        0.02310    0.23800    0.89220    1.000
    O155     O        0.99450    0.31690    0.69610    1.000
    Nd21     Nd       0.72832    0.47578    0.61616    1.000
    Nd22     Nd       0.59577    0.44669    0.81987    1.000
    Nd23     Nd       0.67179    0.16120    0.78614    1.000
    N56      N        0.68362    0.44550    0.51190    1.000
    C136     C        0.68086    0.46660    0.40550    1.000
    C137     C        0.65770    0.48180    0.34880    1.000
    H46      H        0.65630    0.49210    0.27410    1.000
    N57      N        0.63769    0.48180    0.39960    1.000
    C138     C        0.64055    0.46020    0.50490    1.000
    C139     C        0.66328    0.43780    0.55890    1.000
    H47      H        0.66420    0.41700    0.62960    1.000
    C140     C        0.70390    0.48320    0.35340    1.000
    O156     O        0.72390    0.48540    0.41650    1.000
    O157     O        0.70130    0.49800    0.25400    1.000
    C141     C        0.61761    0.46560    0.56310    1.000
    O158     O        0.59874    0.49460    0.50690    1.000
    O159     O        0.61929    0.44490    0.66130    1.000
    N58      N        0.74222    0.32770    0.53230    1.000
    C142     C        0.73428    0.25760    0.57280    1.000
    C143     C        0.74215    0.17930    0.54200    1.000
    H48      H        0.73640    0.13170    0.57370    1.000
    C144     C        0.71537    0.26770    0.65260    1.000
    O160     O        0.71081    0.34240    0.67760    1.000
    O161     O        0.70541    0.20370    0.68530    1.000
    N59      N        0.66680    0.02730    0.91870    1.000
    C145     C        0.68902    0.00070    0.96630    1.000
    C146     C        0.69116    0.96010    0.06660    1.000
    H49      H        0.70660    0.94340    0.09830    1.000
    N60      N        0.67159    0.94460    0.11880    1.000
    C147     C        0.64989    0.97060    0.06970    1.000
    C148     C        0.64735    0.01120    0.96960    1.000
    H50      H        0.63180    0.02740    0.93800    1.000
    C149     C        0.71076    0.02190    0.90830    1.000
    O162     O        0.73086    0.98960    0.94380    1.000
    O163     O        0.70678    0.07010    0.82780    1.000
    C150     C        0.62859    0.95730    0.13420    1.000
    O164     O        0.63268    0.91430    0.21970    1.000
    O165     O        0.60873    0.99310    0.10080    1.000
    N61      N        0.59146    0.32510    0.97350    1.000
    C151     C        0.60608    0.26010    0.96680    1.000
    C152     C        0.60270    0.18520    0.02180    1.000
    H51      H        0.61390    0.14200    0.01870    1.000
    N62      N        0.58366    0.17510    0.07840    1.000
    C153     C        0.56948    0.24170    0.08480    1.000
    C154     C        0.57337    0.31680    0.03710    1.000
    H52      H        0.56340    0.36200    0.04890    1.000
    C155     C        0.62645    0.26890    0.89450    1.000
    O166     O        0.62899    0.34070    0.85430    1.000
    O167     O        0.63881    0.20580    0.88050    1.000
    C156     C        0.54734    0.22860    0.14800    1.000
    O168     O        0.54424    0.15560    0.18160    1.000
    O169     O        0.53392    0.29040    0.15780    1.000
    N63      N        0.50055    0.56360    0.92480    1.000
    C157     C        0.51670    0.50100    0.93030    1.000
    C158     C        0.51570    0.43710    0.00480    1.000
    H53      H        0.52690    0.39350    0.00520    1.000
    C159     C        0.53603    0.50410    0.85300    1.000
    O170     O        0.53194    0.55410    0.77480    1.000
    O171     O        0.55457    0.45880    0.87450    1.000
    O172     O        0.59230    0.59300    0.77310    1.000
    O173     O        0.53620    0.68550    0.90200    1.000
    Nd24     Nd       0.56906    0.02799    0.15969    1.000
    N64      N        0.52299    0.00940    0.05950    1.000
    C160     C        0.52039    0.00550    0.95150    1.000
    C161     C        0.50270    0.00450    0.10650    1.000
    H54      H        0.50390    0.00790    0.18220    1.000
    C162     C        0.54350    0.01180    0.89860    1.000
    O174     O        0.56276    0.03180    0.95920    1.000
    O175     O        0.54204    0.99690    0.79880    1.000
    O176     O        0.55680    0.87960    0.11510    1.000
    O177     O        0.59630    0.09730    0.29870    1.000
    O178     O        0.58810    0.60900    0.83100    1.000
    N65      N        0.59990    0.63400    0.77800    1.000
    O179     O        0.61180    0.58900    0.72900    1.000
    O180     O        0.60130    0.71900    0.77000    1.000
    O181     O        0.61070    0.90500    0.76300    1.000
    N66      N        0.60200    0.88500    0.83200    1.000
    O182     O        0.58180    0.89050    0.84500    1.000
    O183     O        0.61840    0.84900    0.92500    1.000
    O184     O        0.56410    0.11280    0.57370    1.000
    O185     O        0.52310    0.73800    0.89220    1.000
    O186     O        0.49450    0.81690    0.69610    1.000
    Nd25     Nd       0.77168    0.97578    0.88384    1.000
    Nd26     Nd       0.90423    0.94669    0.68013    1.000
    Nd27     Nd       0.82821    0.66120    0.71386    1.000
    N67      N        0.81638    0.94550    0.98810    1.000
    C163     C        0.81914    0.96660    0.09450    1.000
    C164     C        0.84230    0.98180    0.15120    1.000
    H55      H        0.84370    0.99210    0.22590    1.000
    N68      N        0.86231    0.98180    0.10040    1.000
    C165     C        0.85945    0.96020    0.99510    1.000
    C166     C        0.83672    0.93780    0.94110    1.000
    H56      H        0.83580    0.91700    0.87040    1.000
    C167     C        0.79610    0.98320    0.14660    1.000
    O187     O        0.77610    0.98540    0.08350    1.000
    O188     O        0.79870    0.99800    0.24600    1.000
    C168     C        0.88239    0.96560    0.93690    1.000
    O189     O        0.90126    0.99460    0.99310    1.000
    O190     O        0.88071    0.94490    0.83870    1.000
    N69      N        0.75778    0.82770    0.96770    1.000
    C169     C        0.76572    0.75760    0.92720    1.000
    C170     C        0.75785    0.67930    0.95800    1.000
    H57      H        0.76360    0.63170    0.92630    1.000
    C171     C        0.78463    0.76770    0.84740    1.000
    O191     O        0.78919    0.84240    0.82240    1.000
    O192     O        0.79459    0.70370    0.81470    1.000
    N70      N        0.83320    0.52730    0.58130    1.000
    C172     C        0.81098    0.50070    0.53370    1.000
    C173     C        0.80884    0.46010    0.43340    1.000
    H58      H        0.79340    0.44340    0.40170    1.000
    N71      N        0.82841    0.44460    0.38120    1.000
    C174     C        0.85011    0.47060    0.43030    1.000
    C175     C        0.85265    0.51120    0.53040    1.000
    H59      H        0.86820    0.52740    0.56200    1.000
    C176     C        0.78924    0.52190    0.59170    1.000
    O193     O        0.76914    0.48960    0.55620    1.000
    O194     O        0.79322    0.57010    0.67220    1.000
    C177     C        0.87141    0.45730    0.36580    1.000
    O195     O        0.86732    0.41430    0.28030    1.000
    O196     O        0.89127    0.49310    0.39920    1.000
    N72      N        0.90854    0.82510    0.52650    1.000
    C178     C        0.89392    0.76010    0.53320    1.000
    C179     C        0.89730    0.68520    0.47820    1.000
    H60      H        0.88610    0.64200    0.48130    1.000
    N73      N        0.91634    0.67510    0.42160    1.000
    C180     C        0.93052    0.74170    0.41520    1.000
    C181     C        0.92663    0.81680    0.46290    1.000
    H61      H        0.93660    0.86200    0.45110    1.000
    C182     C        0.87355    0.76890    0.60550    1.000
    O197     O        0.87101    0.84070    0.64570    1.000
    O198     O        0.86119    0.70580    0.61950    1.000
    C183     C        0.95266    0.72860    0.35200    1.000
    O199     O        0.95576    0.65560    0.31840    1.000
    O200     O        0.96608    0.79040    0.34220    1.000
    N74      N        0.99945    0.06360    0.57520    1.000
    C184     C        0.98330    0.00100    0.56970    1.000
    C185     C        0.98430    0.93710    0.49520    1.000
    H62      H        0.97310    0.89350    0.49480    1.000
    C186     C        0.96397    0.00410    0.64700    1.000
    O201     O        0.96806    0.05410    0.72520    1.000
    O202     O        0.94543    0.95880    0.62550    1.000
    O203     O        0.90770    0.09300    0.72690    1.000
    O204     O        0.96380    0.18550    0.59800    1.000
    Nd28     Nd       0.93094    0.52799    0.34031    1.000
    N75      N        0.97701    0.50940    0.44050    1.000
    C187     C        0.97961    0.50550    0.54850    1.000
    C188     C        0.99730    0.50450    0.39350    1.000
    H63      H        0.99610    0.50790    0.31780    1.000
    C189     C        0.95650    0.51180    0.60140    1.000
    O205     O        0.93724    0.53180    0.54080    1.000
    O206     O        0.95796    0.49690    0.70120    1.000
    O207     O        0.94320    0.37960    0.38490    1.000
    O208     O        0.90370    0.59730    0.20130    1.000
    O209     O        0.91190    0.10900    0.66900    1.000
    N76      N        0.90010    0.13400    0.72200    1.000
    O210     O        0.88820    0.08900    0.77100    1.000
    O211     O        0.89870    0.21900    0.73000    1.000
    O212     O        0.88930    0.40500    0.73700    1.000
    N77      N        0.89800    0.38500    0.66800    1.000
    O213     O        0.91820    0.39050    0.65500    1.000
    O214     O        0.88160    0.34900    0.57500    1.000
    O215     O        0.93590    0.61280    0.92630    1.000
    O216     O        0.97690    0.23800    0.60780    1.000
    O217     O        0.00550    0.31690    0.80390    1.000
    Nd29     Nd       0.27168    0.47578    0.88384    1.000
    Nd30     Nd       0.40423    0.44669    0.68013    1.000
    Nd31     Nd       0.32821    0.16120    0.71386    1.000
    N78      N        0.31638    0.44550    0.98810    1.000
    C190     C        0.31914    0.46660    0.09450    1.000
    C191     C        0.34230    0.48180    0.15120    1.000
    H64      H        0.34370    0.49210    0.22590    1.000
    N79      N        0.36231    0.48180    0.10040    1.000
    C192     C        0.35945    0.46020    0.99510    1.000
    C193     C        0.33672    0.43780    0.94110    1.000
    H65      H        0.33580    0.41700    0.87040    1.000
    C194     C        0.29610    0.48320    0.14660    1.000
    O218     O        0.27610    0.48540    0.08350    1.000
    O219     O        0.29870    0.49800    0.24600    1.000
    C195     C        0.38239    0.46560    0.93690    1.000
    O220     O        0.40126    0.49460    0.99310    1.000
    O221     O        0.38071    0.44490    0.83870    1.000
    N80      N        0.25778    0.32770    0.96770    1.000
    C196     C        0.26572    0.25760    0.92720    1.000
    C197     C        0.25785    0.17930    0.95800    1.000
    H66      H        0.26360    0.13170    0.92630    1.000
    C198     C        0.28463    0.26770    0.84740    1.000
    O222     O        0.28919    0.34240    0.82240    1.000
    O223     O        0.29459    0.20370    0.81470    1.000
    N81      N        0.33320    0.02730    0.58130    1.000
    C199     C        0.31098    0.00070    0.53370    1.000
    C200     C        0.30884    0.96010    0.43340    1.000
    H67      H        0.29340    0.94340    0.40170    1.000
    N82      N        0.32841    0.94460    0.38120    1.000
    C201     C        0.35011    0.97060    0.43030    1.000
    C202     C        0.35265    0.01120    0.53040    1.000
    H68      H        0.36820    0.02740    0.56200    1.000
    C203     C        0.28924    0.02190    0.59170    1.000
    O224     O        0.26914    0.98960    0.55620    1.000
    O225     O        0.29322    0.07010    0.67220    1.000
    C204     C        0.37141    0.95730    0.36580    1.000
    O226     O        0.36732    0.91430    0.28030    1.000
    O227     O        0.39127    0.99310    0.39920    1.000
    N83      N        0.40854    0.32510    0.52650    1.000
    C205     C        0.39392    0.26010    0.53320    1.000
    C206     C        0.39730    0.18520    0.47820    1.000
    H69      H        0.38610    0.14200    0.48130    1.000
    N84      N        0.41634    0.17510    0.42160    1.000
    C207     C        0.43052    0.24170    0.41520    1.000
    C208     C        0.42663    0.31680    0.46290    1.000
    H70      H        0.43660    0.36200    0.45110    1.000
    C209     C        0.37355    0.26890    0.60550    1.000
    O228     O        0.37101    0.34070    0.64570    1.000
    O229     O        0.36119    0.20580    0.61950    1.000
    C210     C        0.45266    0.22860    0.35200    1.000
    O230     O        0.45576    0.15560    0.31840    1.000
    O231     O        0.46608    0.29040    0.34220    1.000
    N85      N        0.49945    0.56360    0.57520    1.000
    C211     C        0.48330    0.50100    0.56970    1.000
    C212     C        0.48430    0.43710    0.49520    1.000
    H71      H        0.47310    0.39350    0.49480    1.000
    C213     C        0.46397    0.50410    0.64700    1.000
    O232     O        0.46806    0.55410    0.72520    1.000
    O233     O        0.44543    0.45880    0.62550    1.000
    O234     O        0.40770    0.59300    0.72690    1.000
    O235     O        0.46380    0.68550    0.59800    1.000
    Nd32     Nd       0.43094    0.02799    0.34031    1.000
    N86      N        0.47701    0.00940    0.44050    1.000
    C214     C        0.47961    0.00550    0.54850    1.000
    C215     C        0.49730    0.00450    0.39350    1.000
    H72      H        0.49610    0.00790    0.31780    1.000
    C216     C        0.45650    0.01180    0.60140    1.000
    O236     O        0.43724    0.03180    0.54080    1.000
    O237     O        0.45796    0.99690    0.70120    1.000
    O238     O        0.44320    0.87960    0.38490    1.000
    O239     O        0.40370    0.09730    0.20130    1.000
    O240     O        0.41190    0.60900    0.66900    1.000
    N87      N        0.40010    0.63400    0.72200    1.000
    O241     O        0.38820    0.58900    0.77100    1.000
    O242     O        0.39870    0.71900    0.73000    1.000
    O243     O        0.38930    0.90500    0.73700    1.000
    N88      N        0.39800    0.88500    0.66800    1.000
    O244     O        0.41820    0.89050    0.65500    1.000
    O245     O        0.38160    0.84900    0.57500    1.000
    O246     O        0.43590    0.11280    0.92630    1.000
    O247     O        0.47690    0.73800    0.60780    1.000
    O248     O        0.50550    0.81690    0.80390    1.000
    Nd33     Nd       0.00000    0.83693    0.25000    1.000
    Nd34     Nd       0.50000    0.33693    0.25000    1.000
    Nd35     Nd       0.00000    0.16307    0.75000    1.000
    Nd36     Nd       0.50000    0.66307    0.75000    1.000
