# CIF file generated by openbabel 3.1.0, see https://openbabel.org
data_I
_chemical_name_common 'EBANAY_clean'
_cell_length_a 8.0987
_cell_length_b 9.7728
_cell_length_c 11.1806
_cell_angle_alpha 97.1269
_cell_angle_beta 90
_cell_angle_gamma 114.478
_space_group_name_H-M_alt 'P 1'
_space_group_name_Hall 'P 1'
loop_
    _symmetry_equiv_pos_as_xyz
    x,y,z
loop_
    _atom_site_label
    _atom_site_type_symbol
    _atom_site_fract_x
    _atom_site_fract_y
    _atom_site_fract_z
    _atom_site_occupancy
    Sr1      Sr       0.89256    0.51716    0.68609    1.000
    Sr2      Sr       0.37540    0.48284    0.81391    1.000
    Sr3      Sr       0.10744    0.48284    0.31391    1.000
    Sr4      Sr       0.62460    0.51716    0.18609    1.000
    H1       H        0.99520    0.25360    0.66090    1.000
    H2       H        0.09620    0.35000    0.58850    1.000
    H3       H        0.36050    0.05220    0.84450    1.000
    H4       H        0.74160    0.74640    0.83910    1.000
    H5       H        0.74620    0.65000    0.91150    1.000
    H6       H        0.30830    0.94780    0.65550    1.000
    H7       H        0.00480    0.74640    0.33910    1.000
    H8       H        0.90380    0.65000    0.41150    1.000
    H9       H        0.63950    0.94780    0.15550    1.000
    H10      H        0.25840    0.25360    0.16090    1.000
    H11      H        0.25380    0.35000    0.08850    1.000
    H12      H        0.69170    0.05220    0.34450    1.000
    C1       C        0.19530    0.76080    0.85560    1.000
    C2       C        0.34930    0.88400    0.93460    1.000
    C3       C        0.43181    0.85182    0.03060    1.000
    C4       C        0.41768    0.03096    0.90720    1.000
    C5       C        0.36158    0.69756    0.07520    1.000
    C6       C        0.43450    0.23920    0.64440    1.000
    C7       C        0.46530    0.11600    0.56540    1.000
    C8       C        0.57999    0.14818    0.46940    1.000
    C9       C        0.38672    0.96904    0.59280    1.000
    C10      C        0.66402    0.30244    0.42480    1.000
    C11      C        0.80470    0.23920    0.14440    1.000
    C12      C        0.65070    0.11600    0.06540    1.000
    C13      C        0.56819    0.14818    0.96940    1.000
    C14      C        0.58232    0.96904    0.09280    1.000
    C15      C        0.63842    0.30244    0.92480    1.000
    C16      C        0.56550    0.76080    0.35560    1.000
    C17      C        0.53470    0.88400    0.43460    1.000
    C18      C        0.42001    0.85182    0.53060    1.000
    C19      C        0.61328    0.03096    0.40720    1.000
    C20      C        0.33598    0.69756    0.57520    1.000
    O1       O        0.16992    0.62464    0.85720    1.000
    O2       O        0.10148    0.79876    0.78870    1.000
    O3       O        0.44419    0.61558    0.04490    1.000
    O4       O        0.23326    0.66652    0.14440    1.000
    O5       O        0.06747    0.34634    0.66140    1.000
    O6       O        0.54528    0.37536    0.64280    1.000
    O7       O        0.30272    0.20124    0.71130    1.000
    O8       O        0.82861    0.38442    0.45510    1.000
    O9       O        0.56674    0.33348    0.35560    1.000
    O10      O        0.72113    0.65366    0.83860    1.000
    O11      O        0.83008    0.37536    0.14280    1.000
    O12      O        0.89852    0.20124    0.21130    1.000
    O13      O        0.55581    0.38442    0.95510    1.000
    O14      O        0.76674    0.33348    0.85560    1.000
    O15      O        0.93253    0.65366    0.33860    1.000
    O16      O        0.45472    0.62464    0.35720    1.000
    O17      O        0.69728    0.79876    0.28870    1.000
    O18      O        0.17139    0.61558    0.54490    1.000
    O19      O        0.43326    0.66652    0.64440    1.000
    O20      O        0.27887    0.34634    0.16140    1.000
