# CIF file generated by openbabel 3.1.0, see https://openbabel.org
data_I
_chemical_name_common 'ILITUT_clean5b'
_cell_length_a 33.3288
_cell_length_b 33.3288
_cell_length_c 27.853
_cell_angle_alpha 90
_cell_angle_beta 90
_cell_angle_gamma 90.0243
_space_group_name_H-M_alt 'P 1'
_space_group_name_Hall 'P 1'
loop_
    _symmetry_equiv_pos_as_xyz
    x,y,z
loop_
    _atom_site_label
    _atom_site_type_symbol
    _atom_site_fract_x
    _atom_site_fract_y
    _atom_site_fract_z
    _atom_site_occupancy
    Co1      Co       0.25037    0.24259    0.74999    1.000
    Co2      Co       0.24967    0.25741    0.24999    1.000
    Co3      Co       0.00034    0.49253    0.70779    1.000
    Co4      Co       0.49969    0.00747    0.20779    1.000
    Co5      Co       0.00034    0.49253    0.79221    1.000
    Co6      Co       0.49969    0.00747    0.29221    1.000
    H7       H        0.35983    0.35117    0.82724    1.000
    H8       H        0.41119    0.40409    0.82750    1.000
    H9       H        0.50041    0.06228    0.54492    1.000
    H10      H        0.00052    0.05578    0.63171    1.000
    H11      H        0.14005    0.14898    0.32724    1.000
    H12      H        0.08865    0.09610    0.32750    1.000
    H13      H        0.00033    0.43772    0.04492    1.000
    H14      H        0.50007    0.44422    0.13171    1.000
    H15      H        0.14077    0.13408    0.67276    1.000
    H16      H        0.08909    0.08146    0.67250    1.000
    H17      H        0.99988    0.43378    0.96726    1.000
    H18      H        0.00027    0.41315    0.83714    1.000
    H19      H        0.02710    0.39998    0.88975    1.000
    H20      H        0.47305    0.40004    0.88953    1.000
    H21      H        0.35941    0.36577    0.17276    1.000
    H22      H        0.41112    0.41836    0.17250    1.000
    H23      H        0.49955    0.06621    0.46726    1.000
    H24      H        0.49951    0.08685    0.33714    1.000
    H25      H        0.47228    0.09982    0.38955    1.000
    H26      H        0.02634    0.10016    0.38972    1.000
    H27      H        0.14005    0.14898    0.17276    1.000
    H28      H        0.08865    0.09610    0.17250    1.000
    H29      H        0.00033    0.43772    0.45508    1.000
    H30      H        0.50007    0.44422    0.36829    1.000
    H31      H        0.35983    0.35117    0.67276    1.000
    H32      H        0.41120    0.40409    0.67250    1.000
    H33      H        0.50041    0.06228    0.95508    1.000
    H34      H        0.00052    0.05578    0.86829    1.000
    H35      H        0.35941    0.36577    0.32724    1.000
    H36      H        0.41112    0.41836    0.32750    1.000
    H37      H        0.49955    0.06621    0.03274    1.000
    H38      H        0.49951    0.08685    0.16286    1.000
    H39      H        0.47228    0.09982    0.11045    1.000
    H40      H        0.02634    0.10016    0.11028    1.000
    H41      H        0.14077    0.13408    0.82724    1.000
    H42      H        0.08909    0.08146    0.82750    1.000
    H43      H        0.99988    0.43378    0.53274    1.000
    H44      H        0.00027    0.41315    0.66286    1.000
    H45      H        0.02710    0.39998    0.61025    1.000
    H46      H        0.47305    0.40004    0.61047    1.000
    H47      H        0.35891    0.13302    0.67276    1.000
    H48      H        0.41148    0.08132    0.67250    1.000
    H49      H        0.14194    0.35227    0.67276    1.000
    H50      H        0.08966    0.40425    0.67250    1.000
    H51      H        0.14126    0.36713    0.17276    1.000
    H52      H        0.08873    0.41886    0.17250    1.000
    H53      H        0.35794    0.14758    0.17276    1.000
    H54      H        0.41018    0.09557    0.17251    1.000
    H55      H        0.35891    0.13302    0.82724    1.000
    H56      H        0.41148    0.08132    0.82750    1.000
    H57      H        0.14194    0.35227    0.82724    1.000
    H58      H        0.08966    0.40425    0.82749    1.000
    H59      H        0.14126    0.36713    0.32724    1.000
    H60      H        0.08873    0.41886    0.32750    1.000
    H61      H        0.35794    0.14758    0.32724    1.000
    H62      H        0.41018    0.09557    0.32749    1.000
    H63      H        0.40219    0.20407    0.75000    1.000
    H64      H        0.40432    0.28071    0.75000    1.000
    H65      H        0.28897    0.39441    0.75000    1.000
    H66      H        0.21235    0.39655    0.75000    1.000
    H67      H        0.09789    0.29615    0.25000    1.000
    H68      H        0.09566    0.21951    0.25000    1.000
    H69      H        0.21085    0.10564    0.25000    1.000
    H70      H        0.28746    0.10340    0.25000    1.000
    H71      H        0.28840    0.08864    0.75000    1.000
    H72      H        0.21176    0.09077    0.75000    1.000
    H73      H        0.09640    0.20452    0.75000    1.000
    H74      H        0.09855    0.28116    0.75000    1.000
    H75      H        0.21185    0.41141    0.25000    1.000
    H76      H        0.28848    0.40918    0.25000    1.000
    H77      H        0.40368    0.29527    0.25000    1.000
    H78      H        0.40142    0.21863    0.25000    1.000
    C79      C        0.37091    0.36262    0.79335    1.000
    C80      C        0.40033    0.39293    0.79338    1.000
    C81      C        0.00030    0.03228    0.55938    1.000
    C82      C        0.00038    0.02855    0.61059    1.000
    C83      C        0.12896    0.13755    0.29335    1.000
    C84      C        0.09952    0.10725    0.29338    1.000
    C85      C        0.50009    0.46772    0.05938    1.000
    C86      C        0.49996    0.47145    0.11059    1.000
    C87      C        0.12964    0.12268    0.70665    1.000
    C88      C        0.10003    0.09254    0.70662    1.000
    C89      C        0.00016    0.45827    0.89542    1.000
    C90      C        0.00004    0.46136    0.94693    1.000
    C91      C        0.00014    0.41599    0.87625    1.000
    C92      C        0.37055    0.37716    0.20665    1.000
    C93      C        0.40017    0.40728    0.20662    1.000
    C94      C        0.49962    0.04173    0.39542    1.000
    C95      C        0.49970    0.03864    0.44693    1.000
    C96      C        0.49942    0.08401    0.37625    1.000
    C97      C        0.12896    0.13755    0.20665    1.000
    C98      C        0.09952    0.10725    0.20661    1.000
    C99      C        0.50009    0.46772    0.44061    1.000
    C100     C        0.49996    0.47145    0.38941    1.000
    C101     C        0.37091    0.36262    0.70665    1.000
    C102     C        0.40033    0.39293    0.70662    1.000
    C103     C        0.00030    0.03228    0.94062    1.000
    C104     C        0.00038    0.02855    0.88941    1.000
    C105     C        0.37055    0.37716    0.29335    1.000
    C106     C        0.40017    0.40728    0.29338    1.000
    C107     C        0.49962    0.04173    0.10458    1.000
    C108     C        0.49970    0.03864    0.05307    1.000
    C109     C        0.49942    0.08401    0.12375    1.000
    C110     C        0.12964    0.12268    0.79335    1.000
    C111     C        0.10003    0.09254    0.79338    1.000
    C112     C        0.00016    0.45827    0.60458    1.000
    C113     C        0.00004    0.46136    0.55307    1.000
    C114     C        0.00014    0.41599    0.62375    1.000
    C115     C        0.32235    0.16834    0.75000    1.000
    C116     C        0.35483    0.13696    0.75000    1.000
    C117     C        0.41590    0.07686    0.75000    1.000
    C118     C        0.44784    0.04501    0.75000    1.000
    C119     C        0.17839    0.31686    0.75000    1.000
    C120     C        0.14596    0.34827    0.75000    1.000
    C121     C        0.08525    0.40871    0.75000    1.000
    C122     C        0.05334    0.44056    0.75000    1.000
    C123     C        0.17778    0.33176    0.25000    1.000
    C124     C        0.14534    0.36319    0.25000    1.000
    C125     C        0.08431    0.42332    0.25000    1.000
    C126     C        0.05234    0.45514    0.25000    1.000
    C127     C        0.32153    0.18304    0.25000    1.000
    C128     C        0.35392    0.15158    0.25000    1.000
    C129     C        0.41460    0.09111    0.25000    1.000
    C130     C        0.44654    0.05929    0.25000    1.000
    C131     C        0.37029    0.12188    0.70665    1.000
    C132     C        0.40039    0.09224    0.70662    1.000
    C133     C        0.13060    0.36345    0.70665    1.000
    C134     C        0.10067    0.39325    0.70662    1.000
    C135     C        0.00009    0.49846    0.52828    1.000
    C136     C        0.12990    0.37828    0.20665    1.000
    C137     C        0.09982    0.40793    0.20662    1.000
    C138     C        0.36926    0.13639    0.20665    1.000
    C139     C        0.39918    0.10657    0.20662    1.000
    C140     C        0.49995    0.00154    0.02828    1.000
    C141     C        0.37029    0.12188    0.79335    1.000
    C142     C        0.40039    0.09224    0.79338    1.000
    C143     C        0.13060    0.36345    0.79335    1.000
    C144     C        0.10067    0.39325    0.79338    1.000
    C145     C        0.00009    0.49846    0.97171    1.000
    C146     C        0.12990    0.37828    0.29335    1.000
    C147     C        0.09982    0.40793    0.29338    1.000
    C148     C        0.36926    0.13639    0.29335    1.000
    C149     C        0.39918    0.10657    0.29338    1.000
    C150     C        0.49995    0.00154    0.47171    1.000
    C151     C        0.33383    0.21104    0.75000    1.000
    C152     C        0.37609    0.22337    0.75000    1.000
    C153     C        0.37731    0.26265    0.75000    1.000
    C154     C        0.33572    0.27607    0.75000    1.000
    C155     C        0.32461    0.31457    0.75000    1.000
    C156     C        0.28193    0.32604    0.75000    1.000
    C157     C        0.26965    0.36831    0.75000    1.000
    C158     C        0.23038    0.36954    0.75000    1.000
    C159     C        0.21691    0.32795    0.75000    1.000
    C160     C        0.35594    0.34708    0.75000    1.000
    C161     C        0.41557    0.40857    0.75000    1.000
    C162     C        0.44730    0.44059    0.75000    1.000
    C163     C        0.16625    0.28908    0.25000    1.000
    C164     C        0.12397    0.27681    0.25000    1.000
    C165     C        0.12269    0.23753    0.25000    1.000
    C166     C        0.16426    0.22405    0.25000    1.000
    C167     C        0.17532    0.18553    0.25000    1.000
    C168     C        0.21799    0.17400    0.25000    1.000
    C169     C        0.23021    0.13172    0.25000    1.000
    C170     C        0.26948    0.13043    0.25000    1.000
    C171     C        0.28300    0.17200    0.25000    1.000
    C172     C        0.14395    0.15307    0.25000    1.000
    C173     C        0.08428    0.09162    0.25000    1.000
    C174     C        0.05258    0.05956    0.25000    1.000
    C175     C        0.28383    0.15724    0.75000    1.000
    C176     C        0.27037    0.11565    0.75000    1.000
    C177     C        0.23109    0.11687    0.75000    1.000
    C178     C        0.21879    0.15914    0.75000    1.000
    C179     C        0.17610    0.17061    0.75000    1.000
    C180     C        0.16500    0.20912    0.75000    1.000
    C181     C        0.12342    0.22257    0.75000    1.000
    C182     C        0.12465    0.26185    0.75000    1.000
    C183     C        0.16691    0.27416    0.75000    1.000
    C184     C        0.14472    0.13813    0.75000    1.000
    C185     C        0.08469    0.07698    0.75000    1.000
    C186     C        0.05291    0.04497    0.75000    1.000
    C187     C        0.21632    0.34281    0.25000    1.000
    C188     C        0.22984    0.38438    0.25000    1.000
    C189     C        0.26912    0.38310    0.25000    1.000
    C190     C        0.28135    0.34082    0.25000    1.000
    C191     C        0.32403    0.32928    0.25000    1.000
    C192     C        0.33507    0.29076    0.25000    1.000
    C193     C        0.37664    0.27726    0.25000    1.000
    C194     C        0.37536    0.23798    0.25000    1.000
    C195     C        0.33307    0.22573    0.25000    1.000
    C196     C        0.35545    0.36172    0.25000    1.000
    C197     C        0.41552    0.42284    0.25000    1.000
    C198     C        0.44727    0.45488    0.25000    1.000
    N199     N        0.00031    0.49215    0.63391    1.000
    N200     N        0.49973    0.00785    0.13391    1.000
    N201     N        0.00031    0.49215    0.86609    1.000
    N202     N        0.49973    0.00785    0.36609    1.000
    N203     N        0.30945    0.24187    0.75000    1.000
    N204     N        0.25109    0.30167    0.75000    1.000
    N205     N        0.19058    0.25821    0.25000    1.000
    N206     N        0.24886    0.19833    0.25000    1.000
    N207     N        0.24965    0.18350    0.75000    1.000
    N208     N        0.19128    0.24332    0.75000    1.000
    N209     N        0.25047    0.31649    0.25000    1.000
    N210     N        0.30875    0.25660    0.25000    1.000
    O211     O        0.46099    0.45425    0.78982    1.000
    O212     O        0.03892    0.04587    0.28982    1.000
    O213     O        0.03928    0.03128    0.70999    1.000
    O214     O        0.46088    0.46859    0.20999    1.000
    O215     O        0.03892    0.04587    0.21018    1.000
    O216     O        0.46099    0.45425    0.71018    1.000
    O217     O        0.46088    0.46859    0.29001    1.000
    O218     O        0.03928    0.03128    0.79000    1.000
    O219     O        0.46149    0.03134    0.71000    1.000
    O220     O        0.03963    0.45420    0.71018    1.000
    O221     O        0.03866    0.46879    0.21000    1.000
    O222     O        0.46028    0.04568    0.21018    1.000
    O223     O        0.46149    0.03134    0.79000    1.000
    O224     O        0.03963    0.45420    0.78982    1.000
    O225     O        0.03866    0.46879    0.29000    1.000
    O226     O        0.46028    0.04568    0.28982    1.000
    Co227    Co       0.75036    0.24259    0.74999    1.000
    Co228    Co       0.74967    0.25741    0.24999    1.000
    Co229    Co       0.50034    0.49251    0.70779    1.000
    Co230    Co       0.99969    0.00749    0.20779    1.000
    Co231    Co       0.50034    0.49251    0.79221    1.000
    Co232    Co       0.99969    0.00749    0.29221    1.000
    H233     H        0.85869    0.35233    0.82724    1.000
    H234     H        0.91095    0.40435    0.82750    1.000
    H235     H        0.00041    0.06230    0.54492    1.000
    H236     H        0.50052    0.05576    0.63171    1.000
    H237     H        0.64119    0.14783    0.32724    1.000
    H238     H        0.58889    0.09583    0.32750    1.000
    H239     H        0.50032    0.43770    0.04493    1.000
    H240     H        0.00007    0.44424    0.13171    1.000
    H241     H        0.64191    0.13293    0.67276    1.000
    H242     H        0.58934    0.08120    0.67250    1.000
    H243     H        0.49988    0.43377    0.96726    1.000
    H244     H        0.50026    0.41312    0.83715    1.000
    H245     H        0.52710    0.39996    0.88976    1.000
    H246     H        0.97305    0.40006    0.88951    1.000
    H247     H        0.85827    0.36692    0.17276    1.000
    H248     H        0.91086    0.41863    0.17250    1.000
    H249     H        0.99956    0.06623    0.46727    1.000
    H250     H        0.99952    0.08688    0.33715    1.000
    H251     H        0.97229    0.09984    0.38957    1.000
    H252     H        0.52633    0.10014    0.38971    1.000
    H253     H        0.64119    0.14783    0.17276    1.000
    H254     H        0.58889    0.09583    0.17250    1.000
    H255     H        0.50032    0.43770    0.45507    1.000
    H256     H        0.00007    0.44424    0.36829    1.000
    H257     H        0.85869    0.35233    0.67276    1.000
    H258     H        0.91095    0.40435    0.67250    1.000
    H259     H        0.00041    0.06230    0.95508    1.000
    H260     H        0.50052    0.05576    0.86829    1.000
    H261     H        0.85827    0.36692    0.32724    1.000
    H262     H        0.91086    0.41863    0.32750    1.000
    H263     H        0.99956    0.06623    0.03273    1.000
    H264     H        0.99952    0.08688    0.16285    1.000
    H265     H        0.97229    0.09984    0.11043    1.000
    H266     H        0.52633    0.10014    0.11029    1.000
    H267     H        0.64191    0.13293    0.82724    1.000
    H268     H        0.58935    0.08120    0.82750    1.000
    H269     H        0.49988    0.43377    0.53273    1.000
    H270     H        0.50026    0.41312    0.66285    1.000
    H271     H        0.52710    0.39996    0.61024    1.000
    H272     H        0.97305    0.40006    0.61049    1.000
    H273     H        0.86006    0.13417    0.67276    1.000
    H274     H        0.91174    0.08159    0.67250    1.000
    H275     H        0.64079    0.35112    0.67276    1.000
    H276     H        0.58940    0.40397    0.67251    1.000
    H277     H        0.64012    0.36598    0.17276    1.000
    H278     H        0.58846    0.41858    0.17250    1.000
    H279     H        0.85909    0.14873    0.17276    1.000
    H280     H        0.91044    0.09584    0.17251    1.000
    H281     H        0.86006    0.13417    0.82724    1.000
    H282     H        0.91174    0.08159    0.82750    1.000
    H283     H        0.64079    0.35112    0.82724    1.000
    H284     H        0.58940    0.40397    0.82749    1.000
    H285     H        0.64012    0.36598    0.32724    1.000
    H286     H        0.58846    0.41858    0.32750    1.000
    H287     H        0.85909    0.14873    0.32724    1.000
    H288     H        0.91044    0.09584    0.32749    1.000
    H289     H        0.90435    0.20470    0.75000    1.000
    H290     H        0.90215    0.28134    0.75000    1.000
    H291     H        0.78832    0.39658    0.75000    1.000
    H292     H        0.71170    0.39439    0.75000    1.000
    H293     H        0.59573    0.29551    0.25000    1.000
    H294     H        0.59783    0.21887    0.25000    1.000
    H295     H        0.71149    0.10347    0.25000    1.000
    H296     H        0.78811    0.10556    0.25000    1.000
    H297     H        0.78903    0.09081    0.75000    1.000
    H298     H        0.71239    0.08861    0.75000    1.000
    H299     H        0.59856    0.20389    0.75000    1.000
    H300     H        0.59638    0.28053    0.75000    1.000
    H301     H        0.71122    0.40925    0.25000    1.000
    H302     H        0.78785    0.41134    0.25000    1.000
    H303     H        0.90152    0.29590    0.25000    1.000
    H304     H        0.90359    0.21926    0.25000    1.000
    C305     C        0.87002    0.36352    0.79335    1.000
    C306     C        0.89994    0.39334    0.79338    1.000
    C307     C        0.50030    0.03226    0.55938    1.000
    C308     C        0.50038    0.02853    0.61059    1.000
    C309     C        0.62985    0.13664    0.29335    1.000
    C310     C        0.59991    0.10684    0.29339    1.000
    C311     C        0.00009    0.46774    0.05938    1.000
    C312     C        0.99996    0.47147    0.11059    1.000
    C313     C        0.63053    0.12178    0.70665    1.000
    C314     C        0.60043    0.09213    0.70662    1.000
    C315     C        0.50016    0.45825    0.89542    1.000
    C316     C        0.50004    0.46135    0.94693    1.000
    C317     C        0.50014    0.41597    0.87626    1.000
    C318     C        0.86965    0.37806    0.20665    1.000
    C319     C        0.89977    0.40770    0.20662    1.000
    C320     C        0.99963    0.04175    0.39542    1.000
    C321     C        0.99970    0.03865    0.44693    1.000
    C322     C        0.99943    0.08403    0.37626    1.000
    C323     C        0.62985    0.13664    0.20665    1.000
    C324     C        0.59991    0.10684    0.20661    1.000
    C325     C        0.00009    0.46774    0.44062    1.000
    C326     C        0.99996    0.47147    0.38941    1.000
    C327     C        0.87002    0.36352    0.70665    1.000
    C328     C        0.89994    0.39334    0.70662    1.000
    C329     C        0.50030    0.03226    0.94062    1.000
    C330     C        0.50038    0.02853    0.88941    1.000
    C331     C        0.86965    0.37806    0.29335    1.000
    C332     C        0.89977    0.40770    0.29338    1.000
    C333     C        0.99963    0.04175    0.10458    1.000
    C334     C        0.99970    0.03865    0.05307    1.000
    C335     C        0.99943    0.08403    0.12374    1.000
    C336     C        0.63053    0.12178    0.79335    1.000
    C337     C        0.60043    0.09213    0.79338    1.000
    C338     C        0.50016    0.45825    0.60458    1.000
    C339     C        0.50004    0.46135    0.55307    1.000
    C340     C        0.50014    0.41597    0.62374    1.000
    C341     C        0.82468    0.17068    0.75000    1.000
    C342     C        0.85609    0.13823    0.75000    1.000
    C343     C        0.91614    0.07711    0.75000    1.000
    C344     C        0.94789    0.04507    0.75000    1.000
    C345     C        0.67606    0.31452    0.75000    1.000
    C346     C        0.64470    0.34701    0.75000    1.000
    C347     C        0.58501    0.40846    0.75000    1.000
    C348     C        0.55329    0.44049    0.75000    1.000
    C349     C        0.67545    0.32943    0.25000    1.000
    C350     C        0.64408    0.36192    0.25000    1.000
    C351     C        0.58407    0.42307    0.25000    1.000
    C352     C        0.55229    0.45508    0.25000    1.000
    C353     C        0.82387    0.18537    0.25000    1.000
    C354     C        0.85519    0.15285    0.25000    1.000
    C355     C        0.91484    0.09136    0.25000    1.000
    C356     C        0.94660    0.05936    0.25000    1.000
    C357     C        0.87118    0.12279    0.70665    1.000
    C358     C        0.90080    0.09266    0.70662    1.000
    C359     C        0.62970    0.36254    0.70665    1.000
    C360     C        0.60027    0.39283    0.70662    1.000
    C361     C        0.50009    0.49845    0.52828    1.000
    C362     C        0.62900    0.37737    0.20665    1.000
    C363     C        0.59941    0.40751    0.20662    1.000
    C364     C        0.87017    0.13730    0.20665    1.000
    C365     C        0.89958    0.10699    0.20662    1.000
    C366     C        0.99996    0.00155    0.02828    1.000
    C367     C        0.87118    0.12278    0.79335    1.000
    C368     C        0.90080    0.09266    0.79338    1.000
    C369     C        0.62970    0.36254    0.79335    1.000
    C370     C        0.60027    0.39283    0.79338    1.000
    C371     C        0.50009    0.49845    0.97172    1.000
    C372     C        0.62900    0.37737    0.29335    1.000
    C373     C        0.59941    0.40751    0.29338    1.000
    C374     C        0.87017    0.13730    0.29335    1.000
    C375     C        0.89958    0.10699    0.29338    1.000
    C376     C        0.99996    0.00155    0.47172    1.000
    C377     C        0.83575    0.20921    0.75000    1.000
    C378     C        0.87733    0.22271    0.75000    1.000
    C379     C        0.87607    0.26199    0.75000    1.000
    C380     C        0.83379    0.27423    0.75000    1.000
    C381     C        0.82227    0.31691    0.75000    1.000
    C382     C        0.78376    0.32797    0.75000    1.000
    C383     C        0.77030    0.36955    0.75000    1.000
    C384     C        0.73103    0.36830    0.75000    1.000
    C385     C        0.71874    0.32602    0.75000    1.000
    C386     C        0.85468    0.34834    0.75000    1.000
    C387     C        0.91535    0.40881    0.75000    1.000
    C388     C        0.94726    0.44065    0.75000    1.000
    C389     C        0.66433    0.29091    0.25000    1.000
    C390     C        0.62273    0.27747    0.25000    1.000
    C391     C        0.62394    0.23819    0.25000    1.000
    C392     C        0.66620    0.22588    0.25000    1.000
    C393     C        0.67765    0.18319    0.25000    1.000
    C394     C        0.71615    0.17207    0.25000    1.000
    C395     C        0.72956    0.13048    0.25000    1.000
    C396     C        0.76883    0.13168    0.25000    1.000
    C397     C        0.78117    0.17394    0.25000    1.000
    C398     C        0.64520    0.15180    0.25000    1.000
    C399     C        0.58450    0.09137    0.25000    1.000
    C400     C        0.55262    0.05950    0.25000    1.000
    C401     C        0.78198    0.15917    0.75000    1.000
    C402     C        0.76970    0.11689    0.75000    1.000
    C403     C        0.73042    0.11564    0.75000    1.000
    C404     C        0.71695    0.15721    0.75000    1.000
    C405     C        0.67843    0.16828    0.75000    1.000
    C406     C        0.66692    0.21096    0.75000    1.000
    C407     C        0.62465    0.22323    0.75000    1.000
    C408     C        0.62340    0.26251    0.75000    1.000
    C409     C        0.66498    0.27600    0.75000    1.000
    C410     C        0.64597    0.13687    0.75000    1.000
    C411     C        0.58492    0.07674    0.75000    1.000
    C412     C        0.55296    0.04492    0.75000    1.000
    C413     C        0.71816    0.34088    0.25000    1.000
    C414     C        0.73051    0.38313    0.25000    1.000
    C415     C        0.76979    0.38434    0.25000    1.000
    C416     C        0.78320    0.34274    0.25000    1.000
    C417     C        0.82170    0.33162    0.25000    1.000
    C418     C        0.83315    0.28892    0.25000    1.000
    C419     C        0.87541    0.27659    0.25000    1.000
    C420     C        0.87660    0.23731    0.25000    1.000
    C421     C        0.83501    0.22388    0.25000    1.000
    C422     C        0.85420    0.36298    0.25000    1.000
    C423     C        0.91529    0.42308    0.25000    1.000
    C424     C        0.94722    0.45494    0.25000    1.000
    N425     N        0.50030    0.49213    0.63390    1.000
    N426     N        0.99974    0.00787    0.13390    1.000
    N427     N        0.50030    0.49213    0.86609    1.000
    N428     N        0.99974    0.00787    0.36609    1.000
    N429     N        0.80945    0.24336    0.75000    1.000
    N430     N        0.74959    0.30168    0.75000    1.000
    N431     N        0.69058    0.25672    0.25000    1.000
    N432     N        0.75035    0.19832    0.25000    1.000
    N433     N        0.75113    0.18351    0.75000    1.000
    N434     N        0.69127    0.24183    0.75000    1.000
    N435     N        0.74899    0.31649    0.25000    1.000
    N436     N        0.80876    0.25809    0.25000    1.000
    O437     O        0.96098    0.45428    0.78982    1.000
    O438     O        0.53893    0.04585    0.28982    1.000
    O439     O        0.53929    0.03126    0.70999    1.000
    O440     O        0.96087    0.46861    0.20999    1.000
    O441     O        0.53893    0.04585    0.21018    1.000
    O442     O        0.96098    0.45428    0.71018    1.000
    O443     O        0.96087    0.46861    0.29001    1.000
    O444     O        0.53929    0.03126    0.79001    1.000
    O445     O        0.96150    0.03136    0.71000    1.000
    O446     O        0.53961    0.45417    0.71018    1.000
    O447     O        0.53865    0.46876    0.21000    1.000
    O448     O        0.96030    0.04571    0.21018    1.000
    O449     O        0.96150    0.03136    0.79000    1.000
    O450     O        0.53961    0.45417    0.78982    1.000
    O451     O        0.53865    0.46876    0.29000    1.000
    O452     O        0.96030    0.04571    0.28982    1.000
    Co453    Co       0.25036    0.74259    0.74999    1.000
    Co454    Co       0.24966    0.75741    0.24999    1.000
    Co455    Co       0.00034    0.99253    0.70779    1.000
    Co456    Co       0.49969    0.50747    0.20779    1.000
    Co457    Co       0.00034    0.99252    0.79221    1.000
    Co458    Co       0.49969    0.50747    0.29221    1.000
    H459     H        0.35869    0.85232    0.82724    1.000
    H460     H        0.41095    0.90435    0.82750    1.000
    H461     H        0.50038    0.56228    0.54492    1.000
    H462     H        0.00049    0.55578    0.63171    1.000
    H463     H        0.14004    0.64898    0.32724    1.000
    H464     H        0.08864    0.59610    0.32750    1.000
    H465     H        0.00029    0.93772    0.04493    1.000
    H466     H        0.50004    0.94422    0.13171    1.000
    H467     H        0.14191    0.63294    0.67276    1.000
    H468     H        0.08935    0.58121    0.67250    1.000
    H469     H        0.99984    0.93378    0.96726    1.000
    H470     H        0.00025    0.91314    0.83715    1.000
    H471     H        0.02703    0.89995    0.88978    1.000
    H472     H        0.47298    0.90006    0.88949    1.000
    H473     H        0.35941    0.86577    0.17276    1.000
    H474     H        0.41112    0.91836    0.17250    1.000
    H475     H        0.49952    0.56622    0.46727    1.000
    H476     H        0.49950    0.58686    0.33715    1.000
    H477     H        0.47222    0.59980    0.38953    1.000
    H478     H        0.02627    0.60018    0.38974    1.000
    H479     H        0.14004    0.64898    0.17276    1.000
    H480     H        0.08864    0.59610    0.17250    1.000
    H481     H        0.00029    0.93772    0.45507    1.000
    H482     H        0.50004    0.94422    0.36829    1.000
    H483     H        0.35869    0.85232    0.67276    1.000
    H484     H        0.41095    0.90435    0.67250    1.000
    H485     H        0.50038    0.56228    0.95508    1.000
    H486     H        0.00049    0.55578    0.86829    1.000
    H487     H        0.35941    0.86577    0.32724    1.000
    H488     H        0.41112    0.91836    0.32750    1.000
    H489     H        0.49952    0.56622    0.03273    1.000
    H490     H        0.49950    0.58686    0.16285    1.000
    H491     H        0.47222    0.59980    0.11047    1.000
    H492     H        0.02626    0.60018    0.11026    1.000
    H493     H        0.14191    0.63294    0.82724    1.000
    H494     H        0.08935    0.58121    0.82750    1.000
    H495     H        0.99984    0.93378    0.53274    1.000
    H496     H        0.00025    0.91314    0.66285    1.000
    H497     H        0.02703    0.89995    0.61022    1.000
    H498     H        0.47298    0.90006    0.61051    1.000
    H499     H        0.36006    0.63417    0.67276    1.000
    H500     H        0.41174    0.58158    0.67250    1.000
    H501     H        0.14079    0.85112    0.67276    1.000
    H502     H        0.08940    0.90398    0.67251    1.000
    H503     H        0.14126    0.86713    0.17276    1.000
    H504     H        0.08873    0.91886    0.17250    1.000
    H505     H        0.35793    0.64757    0.17276    1.000
    H506     H        0.41018    0.59557    0.17251    1.000
    H507     H        0.36006    0.63416    0.82724    1.000
    H508     H        0.41174    0.58158    0.82750    1.000
    H509     H        0.14079    0.85112    0.82724    1.000
    H510     H        0.08940    0.90398    0.82749    1.000
    H511     H        0.14126    0.86713    0.32724    1.000
    H512     H        0.08873    0.91886    0.32750    1.000
    H513     H        0.35793    0.64758    0.32724    1.000
    H514     H        0.41018    0.59557    0.32749    1.000
    H515     H        0.40435    0.70470    0.75000    1.000
    H516     H        0.40215    0.78134    0.75000    1.000
    H517     H        0.28833    0.89658    0.75000    1.000
    H518     H        0.21171    0.89439    0.75000    1.000
    H519     H        0.09789    0.79615    0.25000    1.000
    H520     H        0.09566    0.71951    0.25000    1.000
    H521     H        0.21084    0.60564    0.25000    1.000
    H522     H        0.28746    0.60339    0.25000    1.000
    H523     H        0.28902    0.59081    0.75000    1.000
    H524     H        0.21239    0.58861    0.75000    1.000
    H525     H        0.09856    0.70389    0.75000    1.000
    H526     H        0.09638    0.78053    0.75000    1.000
    H527     H        0.21185    0.91141    0.25000    1.000
    H528     H        0.28848    0.90918    0.25000    1.000
    H529     H        0.40368    0.79526    0.25000    1.000
    H530     H        0.40142    0.71863    0.25000    1.000
    C531     C        0.37002    0.86351    0.79335    1.000
    C532     C        0.39994    0.89333    0.79339    1.000
    C533     C        0.00028    0.53228    0.55938    1.000
    C534     C        0.00037    0.52855    0.61059    1.000
    C535     C        0.12895    0.63755    0.29335    1.000
    C536     C        0.09951    0.60725    0.29338    1.000
    C537     C        0.50008    0.96772    0.05938    1.000
    C538     C        0.49995    0.97145    0.11059    1.000
    C539     C        0.13054    0.62179    0.70665    1.000
    C540     C        0.10043    0.59214    0.70662    1.000
    C541     C        0.00014    0.95827    0.89542    1.000
    C542     C        0.00001    0.96136    0.94693    1.000
    C543     C        0.00010    0.91598    0.87625    1.000
    C544     C        0.37055    0.87716    0.20665    1.000
    C545     C        0.40017    0.90728    0.20662    1.000
    C546     C        0.49960    0.54173    0.39542    1.000
    C547     C        0.49968    0.53864    0.44693    1.000
    C548     C        0.49938    0.58402    0.37625    1.000
    C549     C        0.12895    0.63755    0.20665    1.000
    C550     C        0.09951    0.60725    0.20661    1.000
    C551     C        0.50008    0.96772    0.44062    1.000
    C552     C        0.49995    0.97145    0.38941    1.000
    C553     C        0.37002    0.86351    0.70665    1.000
    C554     C        0.39994    0.89333    0.70661    1.000
    C555     C        0.00028    0.53228    0.94062    1.000
    C556     C        0.00037    0.52855    0.88941    1.000
    C557     C        0.37055    0.87716    0.29335    1.000
    C558     C        0.40017    0.90728    0.29338    1.000
    C559     C        0.49960    0.54173    0.10458    1.000
    C560     C        0.49968    0.53864    0.05307    1.000
    C561     C        0.49938    0.58402    0.12375    1.000
    C562     C        0.13054    0.62179    0.79335    1.000
    C563     C        0.10044    0.59214    0.79338    1.000
    C564     C        0.00014    0.95827    0.60458    1.000
    C565     C        0.00001    0.96136    0.55307    1.000
    C566     C        0.00010    0.91598    0.62375    1.000
    C567     C        0.32468    0.67067    0.75000    1.000
    C568     C        0.35609    0.63822    0.75000    1.000
    C569     C        0.41614    0.57709    0.75000    1.000
    C570     C        0.44789    0.54506    0.75000    1.000
    C571     C        0.17606    0.81453    0.75000    1.000
    C572     C        0.14469    0.84701    0.75000    1.000
    C573     C        0.08501    0.90847    0.75000    1.000
    C574     C        0.05329    0.94050    0.75000    1.000
    C575     C        0.17778    0.83176    0.25000    1.000
    C576     C        0.14534    0.86319    0.25000    1.000
    C577     C        0.08431    0.92332    0.25000    1.000
    C578     C        0.05234    0.95514    0.25000    1.000
    C579     C        0.32153    0.68304    0.25000    1.000
    C580     C        0.35392    0.65158    0.25000    1.000
    C581     C        0.41460    0.59111    0.25000    1.000
    C582     C        0.44654    0.55929    0.25000    1.000
    C583     C        0.37119    0.62278    0.70665    1.000
    C584     C        0.40080    0.59265    0.70662    1.000
    C585     C        0.12970    0.86255    0.70665    1.000
    C586     C        0.10026    0.89283    0.70662    1.000
    C587     C        0.00009    0.99846    0.52828    1.000
    C588     C        0.12990    0.87828    0.20665    1.000
    C589     C        0.09981    0.90793    0.20662    1.000
    C590     C        0.36926    0.63639    0.20665    1.000
    C591     C        0.39917    0.60657    0.20662    1.000
    C592     C        0.49995    0.50154    0.02828    1.000
    C593     C        0.37118    0.62278    0.79335    1.000
    C594     C        0.40080    0.59265    0.79338    1.000
    C595     C        0.12970    0.86255    0.79335    1.000
    C596     C        0.10026    0.89283    0.79338    1.000
    C597     C        0.00009    0.99846    0.97171    1.000
    C598     C        0.12990    0.87828    0.29335    1.000
    C599     C        0.09981    0.90793    0.29338    1.000
    C600     C        0.36926    0.63639    0.29335    1.000
    C601     C        0.39917    0.60657    0.29338    1.000
    C602     C        0.49995    0.50154    0.47171    1.000
    C603     C        0.33575    0.70920    0.75000    1.000
    C604     C        0.37733    0.72271    0.75000    1.000
    C605     C        0.37607    0.76198    0.75000    1.000
    C606     C        0.33379    0.77423    0.75000    1.000
    C607     C        0.32227    0.81691    0.75000    1.000
    C608     C        0.28376    0.82797    0.75000    1.000
    C609     C        0.27030    0.86955    0.75000    1.000
    C610     C        0.23103    0.86830    0.75000    1.000
    C611     C        0.21874    0.82602    0.75000    1.000
    C612     C        0.35468    0.84834    0.75000    1.000
    C613     C        0.41535    0.90880    0.75000    1.000
    C614     C        0.44726    0.94064    0.75000    1.000
    C615     C        0.16625    0.78907    0.25000    1.000
    C616     C        0.12396    0.77681    0.25000    1.000
    C617     C        0.12269    0.73753    0.25000    1.000
    C618     C        0.16426    0.72405    0.25000    1.000
    C619     C        0.17532    0.68553    0.25000    1.000
    C620     C        0.21798    0.67400    0.25000    1.000
    C621     C        0.23020    0.63172    0.25000    1.000
    C622     C        0.26947    0.63043    0.25000    1.000
    C623     C        0.28300    0.67200    0.25000    1.000
    C624     C        0.14394    0.65307    0.25000    1.000
    C625     C        0.08427    0.59162    0.25000    1.000
    C626     C        0.05258    0.55956    0.25000    1.000
    C627     C        0.28198    0.65917    0.75000    1.000
    C628     C        0.26970    0.61689    0.75000    1.000
    C629     C        0.23042    0.61564    0.75000    1.000
    C630     C        0.21695    0.65721    0.75000    1.000
    C631     C        0.17843    0.66828    0.75000    1.000
    C632     C        0.16692    0.71097    0.75000    1.000
    C633     C        0.12465    0.72323    0.75000    1.000
    C634     C        0.12340    0.76251    0.75000    1.000
    C635     C        0.16498    0.77600    0.75000    1.000
    C636     C        0.14598    0.63688    0.75000    1.000
    C637     C        0.08492    0.57676    0.75000    1.000
    C638     C        0.05296    0.54493    0.75000    1.000
    C639     C        0.21632    0.84281    0.25000    1.000
    C640     C        0.22984    0.88438    0.25000    1.000
    C641     C        0.26912    0.88310    0.25000    1.000
    C642     C        0.28135    0.84082    0.25000    1.000
    C643     C        0.32403    0.82928    0.25000    1.000
    C644     C        0.33507    0.79076    0.25000    1.000
    C645     C        0.37664    0.77725    0.25000    1.000
    C646     C        0.37535    0.73798    0.25000    1.000
    C647     C        0.33307    0.72572    0.25000    1.000
    C648     C        0.35545    0.86172    0.25000    1.000
    C649     C        0.41552    0.92283    0.25000    1.000
    C650     C        0.44727    0.95487    0.25000    1.000
    N651     N        0.00030    0.99214    0.63391    1.000
    N652     N        0.49973    0.50786    0.13391    1.000
    N653     N        0.00030    0.99214    0.86609    1.000
    N654     N        0.49973    0.50786    0.36609    1.000
    N655     N        0.30945    0.74336    0.75000    1.000
    N656     N        0.24959    0.80168    0.75000    1.000
    N657     N        0.19057    0.75821    0.25000    1.000
    N658     N        0.24886    0.69832    0.25000    1.000
    N659     N        0.25113    0.68351    0.75000    1.000
    N660     N        0.19127    0.74183    0.75000    1.000
    N661     N        0.25046    0.81649    0.25000    1.000
    N662     N        0.30875    0.75660    0.25000    1.000
    O663     O        0.46098    0.95426    0.78982    1.000
    O664     O        0.03892    0.54587    0.28982    1.000
    O665     O        0.03929    0.53128    0.70999    1.000
    O666     O        0.46088    0.96859    0.20999    1.000
    O667     O        0.03892    0.54587    0.21018    1.000
    O668     O        0.46098    0.95426    0.71018    1.000
    O669     O        0.46088    0.96859    0.29001    1.000
    O670     O        0.03929    0.53128    0.79001    1.000
    O671     O        0.46150    0.53135    0.71000    1.000
    O672     O        0.03961    0.95418    0.71018    1.000
    O673     O        0.03866    0.96879    0.21000    1.000
    O674     O        0.46028    0.54568    0.21018    1.000
    O675     O        0.46150    0.53135    0.79000    1.000
    O676     O        0.03961    0.95418    0.78982    1.000
    O677     O        0.03866    0.96879    0.29000    1.000
    O678     O        0.46028    0.54568    0.28982    1.000
    Co679    Co       0.75036    0.74259    0.75000    1.000
    Co680    Co       0.74966    0.75741    0.24999    1.000
    Co681    Co       0.50034    0.99251    0.70779    1.000
    Co682    Co       0.99969    0.50749    0.20779    1.000
    Co683    Co       0.50034    0.99251    0.79221    1.000
    Co684    Co       0.99969    0.50749    0.29221    1.000
    H685     H        0.85868    0.85232    0.82724    1.000
    H686     H        0.91094    0.90435    0.82750    1.000
    H687     H        0.00038    0.56230    0.54492    1.000
    H688     H        0.50049    0.55576    0.63171    1.000
    H689     H        0.64004    0.64897    0.32724    1.000
    H690     H        0.58864    0.59609    0.32750    1.000
    H691     H        0.50029    0.93770    0.04492    1.000
    H692     H        0.00004    0.94424    0.13171    1.000
    H693     H        0.64191    0.63293    0.67276    1.000
    H694     H        0.58935    0.58119    0.67250    1.000
    H695     H        0.49984    0.93377    0.96726    1.000
    H696     H        0.50025    0.91313    0.83714    1.000
    H697     H        0.52703    0.89994    0.88978    1.000
    H698     H        0.97298    0.90008    0.88949    1.000
    H699     H        0.85941    0.86578    0.17276    1.000
    H700     H        0.91112    0.91837    0.17250    1.000
    H701     H        0.99952    0.56623    0.46726    1.000
    H702     H        0.99950    0.58687    0.33714    1.000
    H703     H        0.97222    0.59981    0.38953    1.000
    H704     H        0.52627    0.60017    0.38974    1.000
    H705     H        0.64004    0.64897    0.17276    1.000
    H706     H        0.58864    0.59609    0.17250    1.000
    H707     H        0.50029    0.93770    0.45508    1.000
    H708     H        0.00004    0.94424    0.36829    1.000
    H709     H        0.85868    0.85232    0.67276    1.000
    H710     H        0.91094    0.90435    0.67250    1.000
    H711     H        0.00038    0.56230    0.95508    1.000
    H712     H        0.50049    0.55576    0.86829    1.000
    H713     H        0.85941    0.86578    0.32724    1.000
    H714     H        0.91112    0.91837    0.32750    1.000
    H715     H        0.99952    0.56623    0.03274    1.000
    H716     H        0.99950    0.58687    0.16286    1.000
    H717     H        0.97222    0.59981    0.11047    1.000
    H718     H        0.52627    0.60017    0.11025    1.000
    H719     H        0.64191    0.63293    0.82724    1.000
    H720     H        0.58935    0.58119    0.82750    1.000
    H721     H        0.49984    0.93377    0.53274    1.000
    H722     H        0.50025    0.91313    0.66286    1.000
    H723     H        0.52703    0.89994    0.61022    1.000
    H724     H        0.97298    0.90008    0.61051    1.000
    H725     H        0.86006    0.63417    0.67276    1.000
    H726     H        0.91174    0.58159    0.67250    1.000
    H727     H        0.64079    0.85111    0.67276    1.000
    H728     H        0.58940    0.90397    0.67251    1.000
    H729     H        0.64127    0.86712    0.17276    1.000
    H730     H        0.58873    0.91884    0.17250    1.000
    H731     H        0.85794    0.64758    0.17276    1.000
    H732     H        0.91018    0.59558    0.17251    1.000
    H733     H        0.86006    0.63417    0.82724    1.000
    H734     H        0.91174    0.58159    0.82750    1.000
    H735     H        0.64079    0.85111    0.82724    1.000
    H736     H        0.58940    0.90397    0.82749    1.000
    H737     H        0.64127    0.86712    0.32724    1.000
    H738     H        0.58873    0.91885    0.32750    1.000
    H739     H        0.85794    0.64758    0.32724    1.000
    H740     H        0.91018    0.59558    0.32749    1.000
    H741     H        0.90435    0.70471    0.75000    1.000
    H742     H        0.90215    0.78134    0.75000    1.000
    H743     H        0.78832    0.89658    0.75000    1.000
    H744     H        0.71170    0.89438    0.75000    1.000
    H745     H        0.59789    0.79614    0.25000    1.000
    H746     H        0.59566    0.71950    0.25000    1.000
    H747     H        0.71085    0.60564    0.25000    1.000
    H748     H        0.78747    0.60340    0.25000    1.000
    H749     H        0.78902    0.59081    0.75000    1.000
    H750     H        0.71239    0.58861    0.75000    1.000
    H751     H        0.59856    0.70389    0.75000    1.000
    H752     H        0.59638    0.78052    0.75000    1.000
    H753     H        0.71184    0.91141    0.25000    1.000
    H754     H        0.78847    0.90918    0.25000    1.000
    H755     H        0.90368    0.79527    0.25000    1.000
    H756     H        0.90142    0.71863    0.25000    1.000
    C757     C        0.87002    0.86352    0.79335    1.000
    C758     C        0.89993    0.89334    0.79338    1.000
    C759     C        0.50028    0.53226    0.55938    1.000
    C760     C        0.50037    0.52853    0.61059    1.000
    C761     C        0.62895    0.63754    0.29335    1.000
    C762     C        0.59951    0.60724    0.29338    1.000
    C763     C        0.00007    0.96774    0.05938    1.000
    C764     C        0.99995    0.97147    0.11059    1.000
    C765     C        0.63053    0.62178    0.70665    1.000
    C766     C        0.60043    0.59213    0.70662    1.000
    C767     C        0.50014    0.95826    0.89542    1.000
    C768     C        0.50001    0.96135    0.94693    1.000
    C769     C        0.50010    0.91597    0.87625    1.000
    C770     C        0.87055    0.87717    0.20665    1.000
    C771     C        0.90018    0.90729    0.20662    1.000
    C772     C        0.99960    0.54174    0.39542    1.000
    C773     C        0.99968    0.53865    0.44693    1.000
    C774     C        0.99938    0.58403    0.37625    1.000
    C775     C        0.62895    0.63754    0.20665    1.000
    C776     C        0.59951    0.60724    0.20662    1.000
    C777     C        0.00007    0.96774    0.44062    1.000
    C778     C        0.99995    0.97147    0.38941    1.000
    C779     C        0.87002    0.86352    0.70665    1.000
    C780     C        0.89993    0.89334    0.70661    1.000
    C781     C        0.50028    0.53226    0.94062    1.000
    C782     C        0.50037    0.52853    0.88941    1.000
    C783     C        0.87055    0.87717    0.29335    1.000
    C784     C        0.90017    0.90729    0.29338    1.000
    C785     C        0.99960    0.54174    0.10458    1.000
    C786     C        0.99968    0.53865    0.05307    1.000
    C787     C        0.99938    0.58403    0.12375    1.000
    C788     C        0.63053    0.62178    0.79335    1.000
    C789     C        0.60043    0.59213    0.79338    1.000
    C790     C        0.50014    0.95826    0.60458    1.000
    C791     C        0.50001    0.96135    0.55307    1.000
    C792     C        0.50010    0.91597    0.62375    1.000
    C793     C        0.82468    0.67067    0.75000    1.000
    C794     C        0.85609    0.63822    0.75000    1.000
    C795     C        0.91614    0.57711    0.75000    1.000
    C796     C        0.94789    0.54507    0.75000    1.000
    C797     C        0.67605    0.81452    0.75000    1.000
    C798     C        0.64469    0.84701    0.75000    1.000
    C799     C        0.58501    0.90846    0.75000    1.000
    C800     C        0.55329    0.94049    0.75000    1.000
    C801     C        0.67778    0.83176    0.25000    1.000
    C802     C        0.64534    0.86318    0.25000    1.000
    C803     C        0.58431    0.92331    0.25000    1.000
    C804     C        0.55234    0.95512    0.25000    1.000
    C805     C        0.82153    0.68304    0.25000    1.000
    C806     C        0.85392    0.65159    0.25000    1.000
    C807     C        0.91460    0.59112    0.25000    1.000
    C808     C        0.94654    0.55930    0.25000    1.000
    C809     C        0.87118    0.62278    0.70665    1.000
    C810     C        0.90080    0.59266    0.70662    1.000
    C811     C        0.62970    0.86254    0.70665    1.000
    C812     C        0.60026    0.89283    0.70662    1.000
    C813     C        0.50009    0.99845    0.52828    1.000
    C814     C        0.62990    0.87827    0.20665    1.000
    C815     C        0.59981    0.90792    0.20662    1.000
    C816     C        0.86926    0.63640    0.20665    1.000
    C817     C        0.89918    0.60658    0.20662    1.000
    C818     C        0.99995    0.50155    0.02828    1.000
    C819     C        0.87118    0.62278    0.79335    1.000
    C820     C        0.90080    0.59266    0.79338    1.000
    C821     C        0.62970    0.86254    0.79335    1.000
    C822     C        0.60026    0.89283    0.79338    1.000
    C823     C        0.50009    0.99845    0.97172    1.000
    C824     C        0.62990    0.87827    0.29335    1.000
    C825     C        0.59981    0.90792    0.29338    1.000
    C826     C        0.86926    0.63640    0.29335    1.000
    C827     C        0.89918    0.60658    0.29338    1.000
    C828     C        0.99996    0.50155    0.47172    1.000
    C829     C        0.83575    0.70920    0.75000    1.000
    C830     C        0.87732    0.72271    0.75000    1.000
    C831     C        0.87606    0.76199    0.75000    1.000
    C832     C        0.83379    0.77423    0.75000    1.000
    C833     C        0.82227    0.81691    0.75000    1.000
    C834     C        0.78376    0.82797    0.75000    1.000
    C835     C        0.77029    0.86955    0.75000    1.000
    C836     C        0.73102    0.86830    0.75000    1.000
    C837     C        0.71874    0.82602    0.75000    1.000
    C838     C        0.85468    0.84834    0.75000    1.000
    C839     C        0.91534    0.90881    0.75000    1.000
    C840     C        0.94725    0.94065    0.75000    1.000
    C841     C        0.66625    0.78907    0.25000    1.000
    C842     C        0.62397    0.77680    0.25000    1.000
    C843     C        0.62269    0.73753    0.25000    1.000
    C844     C        0.66426    0.72404    0.25000    1.000
    C845     C        0.67532    0.68553    0.25000    1.000
    C846     C        0.71798    0.67400    0.25000    1.000
    C847     C        0.73021    0.63172    0.25000    1.000
    C848     C        0.76948    0.63044    0.25000    1.000
    C849     C        0.78300    0.67200    0.25000    1.000
    C850     C        0.64394    0.65306    0.25000    1.000
    C851     C        0.58427    0.59161    0.25000    1.000
    C852     C        0.55258    0.55955    0.25000    1.000
    C853     C        0.78198    0.65917    0.75000    1.000
    C854     C        0.76970    0.61689    0.75000    1.000
    C855     C        0.73042    0.61563    0.75000    1.000
    C856     C        0.71695    0.65721    0.75000    1.000
    C857     C        0.67843    0.66828    0.75000    1.000
    C858     C        0.66692    0.71096    0.75000    1.000
    C859     C        0.62465    0.72323    0.75000    1.000
    C860     C        0.62340    0.76251    0.75000    1.000
    C861     C        0.66497    0.77600    0.75000    1.000
    C862     C        0.64597    0.63687    0.75000    1.000
    C863     C        0.58492    0.57674    0.75000    1.000
    C864     C        0.55296    0.54491    0.75000    1.000
    C865     C        0.71632    0.84281    0.25000    1.000
    C866     C        0.72984    0.88438    0.25000    1.000
    C867     C        0.76912    0.88310    0.25000    1.000
    C868     C        0.78135    0.84082    0.25000    1.000
    C869     C        0.82403    0.82929    0.25000    1.000
    C870     C        0.83508    0.79076    0.25000    1.000
    C871     C        0.87664    0.77726    0.25000    1.000
    C872     C        0.87536    0.73798    0.25000    1.000
    C873     C        0.83307    0.72573    0.25000    1.000
    C874     C        0.85546    0.86173    0.25000    1.000
    C875     C        0.91552    0.92285    0.25000    1.000
    C876     C        0.94727    0.95489    0.25000    1.000
    N877     N        0.50030    0.99213    0.63391    1.000
    N878     N        0.99973    0.50787    0.13391    1.000
    N879     N        0.50030    0.99213    0.86609    1.000
    N880     N        0.99973    0.50787    0.36609    1.000
    N881     N        0.80945    0.74336    0.75000    1.000
    N882     N        0.74959    0.80167    0.75000    1.000
    N883     N        0.69058    0.75821    0.25000    1.000
    N884     N        0.74886    0.69833    0.25000    1.000
    N885     N        0.75112    0.68351    0.75000    1.000
    N886     N        0.69127    0.74183    0.75000    1.000
    N887     N        0.75047    0.81649    0.25000    1.000
    N888     N        0.80875    0.75660    0.25000    1.000
    O889     O        0.96098    0.95427    0.78982    1.000
    O890     O        0.53892    0.54586    0.28982    1.000
    O891     O        0.53929    0.53126    0.70999    1.000
    O892     O        0.96088    0.96861    0.20999    1.000
    O893     O        0.53892    0.54586    0.21018    1.000
    O894     O        0.96098    0.95427    0.71018    1.000
    O895     O        0.96088    0.96861    0.29001    1.000
    O896     O        0.53929    0.53126    0.79001    1.000
    O897     O        0.96150    0.53136    0.71000    1.000
    O898     O        0.53961    0.95417    0.71018    1.000
    O899     O        0.53866    0.96877    0.21000    1.000
    O900     O        0.96028    0.54569    0.21018    1.000
    O901     O        0.96150    0.53136    0.79000    1.000
    O902     O        0.53961    0.95417    0.78982    1.000
    O903     O        0.53866    0.96877    0.29000    1.000
    O904     O        0.96028    0.54569    0.28982    1.000
