# CIF file generated by openbabel 3.1.0, see https://openbabel.org
data_I
_chemical_name_common 'image0'
_cell_length_a 16.0857
_cell_length_b 9.1973
_cell_length_c 15.4216
_cell_angle_alpha 90
_cell_angle_beta 112.033
_cell_angle_gamma 90
_space_group_name_H-M_alt 'P 1'
_space_group_name_Hall 'P 1'
loop_
    _symmetry_equiv_pos_as_xyz
    x,y,z
loop_
    _atom_site_label
    _atom_site_type_symbol
    _atom_site_fract_x
    _atom_site_fract_y
    _atom_site_fract_z
    _atom_site_occupancy
    As1      As       0.71917    0.44957    0.84055    1.000
    As2      As       0.77730    0.20336    0.11857    1.000
    As3      As       0.52912    0.72967    0.04077    1.000
    Zn1      Zn       0.89358    0.25085    0.97465    1.000
    Zn2      Zn       0.64665    0.46904    0.01269    1.000
    Zn3      Zn       0.59249    0.43346    0.62934    1.000
    O1       O        0.71550    0.52390    0.93720    1.000
    O2       O        0.79210    0.31470    0.85470    1.000
    O3       O        0.61700    0.40430    0.76390    1.000
    O4       O        0.75610    0.59400    0.79140    1.000
    H1       H        0.76020    0.56760    0.74240    1.000
    O5       O        0.72790    0.36200    0.11950    1.000
    O6       O        0.80930    0.16890    0.03080    1.000
    O7       O        0.71210    0.05960    0.12240    1.000
    O8       O        0.87170    0.19630    0.22000    1.000
    H2       H        0.85790    0.21310    0.26500    1.000
    O9       O        0.53480    0.87820    0.10520    1.000
    O10      O        0.63260    0.66270    0.06160    1.000
    O11      O        0.48190    0.76770    0.92570    1.000
    O12      O        0.46670    0.60780    0.07030    1.000
    O13      O        0.93130    0.44030    0.05820    1.000
    O14      O        0.00220    0.13650    0.07970    1.000
    O15      O        0.08680    0.93470    0.10060    1.000
    O16      O        0.01530    0.64000    0.08060    1.000
    C1       C        0.98530    0.52340    0.03980    1.000
    C2       C        0.02550    0.02120    0.05220    1.000
    As4      As       0.28083    0.94957    0.65945    1.000
    As5      As       0.22270    0.70336    0.38143    1.000
    As6      As       0.47088    0.22967    0.45923    1.000
    Zn4      Zn       0.10642    0.75085    0.52535    1.000
    Zn5      Zn       0.35335    0.96904    0.48731    1.000
    Zn6      Zn       0.40751    0.93346    0.87066    1.000
    O17      O        0.28450    0.02390    0.56280    1.000
    O18      O        0.20790    0.81470    0.64530    1.000
    O19      O        0.38300    0.90430    0.73610    1.000
    O20      O        0.24390    0.09400    0.70860    1.000
    H3       H        0.23980    0.06760    0.75760    1.000
    O21      O        0.27210    0.86200    0.38050    1.000
    O22      O        0.19070    0.66890    0.46920    1.000
    O23      O        0.28790    0.55960    0.37760    1.000
    O24      O        0.12830    0.69630    0.28000    1.000
    H4       H        0.14210    0.71310    0.23500    1.000
    O25      O        0.46520    0.37820    0.39480    1.000
    O26      O        0.36740    0.16270    0.43840    1.000
    O27      O        0.51810    0.26770    0.57430    1.000
    O28      O        0.53330    0.10780    0.42970    1.000
    O29      O        0.06870    0.94030    0.44180    1.000
    O30      O        0.99780    0.63650    0.42030    1.000
    O31      O        0.91320    0.43470    0.39940    1.000
    O32      O        0.98470    0.14000    0.41940    1.000
    C3       C        0.01470    0.02340    0.46020    1.000
    C4       C        0.97450    0.52120    0.44780    1.000
    As7      As       0.28083    0.55043    0.15945    1.000
    As8      As       0.22270    0.79664    0.88143    1.000
    As9      As       0.47088    0.27033    0.95923    1.000
    Zn7      Zn       0.10642    0.74915    0.02535    1.000
    Zn8      Zn       0.35335    0.53096    0.98731    1.000
    Zn9      Zn       0.40751    0.56654    0.37066    1.000
    O33      O        0.28450    0.47610    0.06280    1.000
    O34      O        0.20790    0.68530    0.14530    1.000
    O35      O        0.38300    0.59570    0.23610    1.000
    O36      O        0.24390    0.40600    0.20860    1.000
    H5       H        0.23980    0.43240    0.25760    1.000
    O37      O        0.27210    0.63800    0.88050    1.000
    O38      O        0.19070    0.83110    0.96920    1.000
    O39      O        0.28790    0.94040    0.87760    1.000
    O40      O        0.12830    0.80370    0.78000    1.000
    H6       H        0.14210    0.78690    0.73500    1.000
    O41      O        0.46520    0.12180    0.89480    1.000
    O42      O        0.36740    0.33730    0.93840    1.000
    O43      O        0.51810    0.23230    0.07430    1.000
    O44      O        0.53330    0.39220    0.92970    1.000
    O45      O        0.06870    0.55970    0.94180    1.000
    O46      O        0.99780    0.86350    0.92030    1.000
    O47      O        0.91320    0.06530    0.89940    1.000
    O48      O        0.98470    0.36000    0.91940    1.000
    C5       C        0.01470    0.47660    0.96020    1.000
    C6       C        0.97450    0.97880    0.94780    1.000
    As10     As       0.71917    0.05043    0.34055    1.000
    As11     As       0.77730    0.29664    0.61857    1.000
    As12     As       0.52912    0.77033    0.54077    1.000
    Zn10     Zn       0.89358    0.24915    0.47465    1.000
    Zn11     Zn       0.64665    0.03096    0.51269    1.000
    Zn12     Zn       0.59249    0.06654    0.12934    1.000
    O49      O        0.71550    0.97610    0.43720    1.000
    O50      O        0.79210    0.18530    0.35470    1.000
    O51      O        0.61700    0.09570    0.26390    1.000
    O52      O        0.75610    0.90600    0.29140    1.000
    H7       H        0.76020    0.93240    0.24240    1.000
    O53      O        0.72790    0.13800    0.61950    1.000
    O54      O        0.80930    0.33110    0.53080    1.000
    O55      O        0.71210    0.44040    0.62240    1.000
    O56      O        0.87170    0.30370    0.72000    1.000
    H8       H        0.85790    0.28690    0.76500    1.000
    O57      O        0.53480    0.62180    0.60520    1.000
    O58      O        0.63260    0.83730    0.56160    1.000
    O59      O        0.48190    0.73230    0.42570    1.000
    O60      O        0.46670    0.89220    0.57030    1.000
    O61      O        0.93130    0.05970    0.55820    1.000
    O62      O        0.00220    0.36350    0.57970    1.000
    O63      O        0.08680    0.56530    0.60060    1.000
    O64      O        0.01530    0.86000    0.58060    1.000
    C7       C        0.98530    0.97660    0.53980    1.000
    C8       C        0.02550    0.47880    0.55220    1.000
