# CIF file generated by openbabel 3.1.0, see https://openbabel.org
data_I
_chemical_name_common 'image0'
_cell_length_a 23.7544
_cell_length_b 10.5386
_cell_length_c 19.7584
_cell_angle_alpha 90
_cell_angle_beta 125.805
_cell_angle_gamma 90
_space_group_name_H-M_alt 'P 1'
_space_group_name_Hall 'P 1'
loop_
    _symmetry_equiv_pos_as_xyz
    x,y,z
loop_
    _atom_site_label
    _atom_site_type_symbol
    _atom_site_fract_x
    _atom_site_fract_y
    _atom_site_fract_z
    _atom_site_occupancy
    Tb1      Tb       0.49868    0.04659    0.12647    1.000
    O1       O        0.11214    0.41110    0.75623    1.000
    O2       O        0.08663    0.29530    0.64916    1.000
    O3       O        0.44564    0.15330    0.00356    1.000
    O4       O        0.42683    0.05880    0.89190    1.000
    O5       O        0.48112    0.21870    0.18350    1.000
    O6       O        0.51722    0.87760    0.20910    1.000
    C1       C        0.40832    0.12710    0.92700    1.000
    C2       C        0.50900    0.61390    0.19630    1.000
    H1       H        0.51570    0.65820    0.16090    1.000
    C3       C        0.33604    0.18060    0.87360    1.000
    C4       C        0.31300    0.26140    0.90820    1.000
    H2       H        0.34240    0.28290    0.96440    1.000
    C5       C        0.29140    0.14970    0.78960    1.000
    C6       C        0.50790    0.48160    0.19510    1.000
    H3       H        0.51240    0.43790    0.15760    1.000
    C7       C        0.20155    0.27780    0.77580    1.000
    C8       C        0.24590    0.31010    0.85860    1.000
    H4       H        0.23100    0.36520    0.88190    1.000
    C9       C        0.22460    0.19630    0.74150    1.000
    H5       H        0.19460    0.17290    0.68570    1.000
    C10      C        0.12957    0.32970    0.72410    1.000
    H6       H        0.30400    0.09000    0.76400    1.000
    Tb2      Tb       0.99868    0.54659    0.12647    1.000
    O7       O        0.61214    0.91110    0.75623    1.000
    O8       O        0.58663    0.79530    0.64916    1.000
    O9       O        0.94564    0.65330    0.00356    1.000
    O10      O        0.92683    0.55880    0.89190    1.000
    O11      O        0.98112    0.71870    0.18350    1.000
    O12      O        0.01722    0.37760    0.20910    1.000
    C11      C        0.90832    0.62710    0.92700    1.000
    C12      C        0.00900    0.11390    0.19630    1.000
    H7       H        0.01570    0.15820    0.16090    1.000
    C13      C        0.83604    0.68060    0.87360    1.000
    C14      C        0.81300    0.76140    0.90820    1.000
    H8       H        0.84240    0.78290    0.96440    1.000
    C15      C        0.79140    0.64970    0.78960    1.000
    C16      C        0.00790    0.98160    0.19510    1.000
    H9       H        0.01240    0.93790    0.15760    1.000
    C17      C        0.70155    0.77780    0.77580    1.000
    C18      C        0.74590    0.81010    0.85860    1.000
    H10      H        0.73100    0.86520    0.88190    1.000
    C19      C        0.72460    0.69630    0.74150    1.000
    H11      H        0.69460    0.67290    0.68570    1.000
    C20      C        0.62957    0.82970    0.72410    1.000
    H12      H        0.80400    0.59000    0.76400    1.000
    Tb3      Tb       0.50132    0.04659    0.37353    1.000
    O13      O        0.88786    0.41110    0.74377    1.000
    O14      O        0.91337    0.29530    0.85084    1.000
    O15      O        0.55436    0.15330    0.49644    1.000
    O16      O        0.57317    0.05880    0.60810    1.000
    O17      O        0.51888    0.21870    0.31650    1.000
    O18      O        0.48278    0.87760    0.29090    1.000
    C21      C        0.59168    0.12710    0.57300    1.000
    C22      C        0.49100    0.61390    0.30370    1.000
    H13      H        0.48430    0.65820    0.33910    1.000
    C23      C        0.66396    0.18060    0.62640    1.000
    C24      C        0.68700    0.26140    0.59180    1.000
    H14      H        0.65760    0.28290    0.53560    1.000
    C25      C        0.70860    0.14970    0.71040    1.000
    C26      C        0.49210    0.48160    0.30490    1.000
    H15      H        0.48760    0.43790    0.34240    1.000
    C27      C        0.79845    0.27780    0.72420    1.000
    C28      C        0.75410    0.31010    0.64140    1.000
    H16      H        0.76900    0.36520    0.61810    1.000
    C29      C        0.77540    0.19630    0.75850    1.000
    H17      H        0.80540    0.17290    0.81430    1.000
    C30      C        0.87043    0.32970    0.77590    1.000
    H18      H        0.69600    0.09000    0.73600    1.000
    Tb4      Tb       0.00132    0.54659    0.37353    1.000
    O19      O        0.38786    0.91110    0.74377    1.000
    O20      O        0.41337    0.79530    0.85084    1.000
    O21      O        0.05436    0.65330    0.49644    1.000
    O22      O        0.07317    0.55880    0.60810    1.000
    O23      O        0.01888    0.71870    0.31650    1.000
    O24      O        0.98278    0.37760    0.29090    1.000
    C31      C        0.09168    0.62710    0.57300    1.000
    C32      C        0.99100    0.11390    0.30370    1.000
    H19      H        0.98430    0.15820    0.33910    1.000
    C33      C        0.16396    0.68060    0.62640    1.000
    C34      C        0.18700    0.76140    0.59180    1.000
    H20      H        0.15760    0.78290    0.53560    1.000
    C35      C        0.20860    0.64970    0.71040    1.000
    C36      C        0.99210    0.98160    0.30490    1.000
    H21      H        0.98760    0.93790    0.34240    1.000
    C37      C        0.29845    0.77780    0.72420    1.000
    C38      C        0.25410    0.81010    0.64140    1.000
    H22      H        0.26900    0.86520    0.61810    1.000
    C39      C        0.27540    0.69630    0.75850    1.000
    H23      H        0.30540    0.67290    0.81430    1.000
    C40      C        0.37043    0.82970    0.77590    1.000
    H24      H        0.19600    0.59000    0.73600    1.000
    Tb5      Tb       0.50132    0.95341    0.87353    1.000
    O25      O        0.88786    0.58890    0.24377    1.000
    O26      O        0.91337    0.70470    0.35084    1.000
    O27      O        0.55436    0.84670    0.99644    1.000
    O28      O        0.57317    0.94120    0.10810    1.000
    O29      O        0.51888    0.78130    0.81650    1.000
    O30      O        0.48278    0.12240    0.79090    1.000
    C41      C        0.59168    0.87290    0.07300    1.000
    C42      C        0.49100    0.38610    0.80370    1.000
    H25      H        0.48430    0.34180    0.83910    1.000
    C43      C        0.66396    0.81940    0.12640    1.000
    C44      C        0.68700    0.73860    0.09180    1.000
    H26      H        0.65760    0.71710    0.03560    1.000
    C45      C        0.70860    0.85030    0.21040    1.000
    C46      C        0.49210    0.51840    0.80490    1.000
    H27      H        0.48760    0.56210    0.84240    1.000
    C47      C        0.79845    0.72220    0.22420    1.000
    C48      C        0.75410    0.68990    0.14140    1.000
    H28      H        0.76900    0.63480    0.11810    1.000
    C49      C        0.77540    0.80370    0.25850    1.000
    H29      H        0.80540    0.82710    0.31430    1.000
    C50      C        0.87043    0.67030    0.27590    1.000
    H30      H        0.69600    0.91000    0.23600    1.000
    Tb6      Tb       0.00132    0.45341    0.87353    1.000
    O31      O        0.38786    0.08890    0.24377    1.000
    O32      O        0.41337    0.20470    0.35084    1.000
    O33      O        0.05436    0.34670    0.99644    1.000
    O34      O        0.07317    0.44120    0.10810    1.000
    O35      O        0.01888    0.28130    0.81650    1.000
    O36      O        0.98278    0.62240    0.79090    1.000
    C51      C        0.09168    0.37290    0.07300    1.000
    C52      C        0.99100    0.88610    0.80370    1.000
    H31      H        0.98430    0.84180    0.83910    1.000
    C53      C        0.16396    0.31940    0.12640    1.000
    C54      C        0.18700    0.23860    0.09180    1.000
    H32      H        0.15760    0.21710    0.03560    1.000
    C55      C        0.20860    0.35030    0.21040    1.000
    C56      C        0.99210    0.01840    0.80490    1.000
    H33      H        0.98760    0.06210    0.84240    1.000
    C57      C        0.29845    0.22220    0.22420    1.000
    C58      C        0.25410    0.18990    0.14140    1.000
    H34      H        0.26900    0.13480    0.11810    1.000
    C59      C        0.27540    0.30370    0.25850    1.000
    H35      H        0.30540    0.32710    0.31430    1.000
    C60      C        0.37043    0.17030    0.27590    1.000
    H36      H        0.19600    0.41000    0.23600    1.000
    Tb7      Tb       0.49868    0.95341    0.62647    1.000
    O37      O        0.11214    0.58890    0.25623    1.000
    O38      O        0.08663    0.70470    0.14916    1.000
    O39      O        0.44564    0.84670    0.50356    1.000
    O40      O        0.42683    0.94120    0.39190    1.000
    O41      O        0.48112    0.78130    0.68350    1.000
    O42      O        0.51722    0.12240    0.70910    1.000
    C61      C        0.40832    0.87290    0.42700    1.000
    C62      C        0.50900    0.38610    0.69630    1.000
    H37      H        0.51570    0.34180    0.66090    1.000
    C63      C        0.33604    0.81940    0.37360    1.000
    C64      C        0.31300    0.73860    0.40820    1.000
    H38      H        0.34240    0.71710    0.46440    1.000
    C65      C        0.29140    0.85030    0.28960    1.000
    C66      C        0.50790    0.51840    0.69510    1.000
    H39      H        0.51240    0.56210    0.65760    1.000
    C67      C        0.20155    0.72220    0.27580    1.000
    C68      C        0.24590    0.68990    0.35860    1.000
    H40      H        0.23100    0.63480    0.38190    1.000
    C69      C        0.22460    0.80370    0.24150    1.000
    H41      H        0.19460    0.82710    0.18570    1.000
    C70      C        0.12957    0.67030    0.22410    1.000
    H42      H        0.30400    0.91000    0.26400    1.000
    Tb8      Tb       0.99868    0.45341    0.62647    1.000
    O43      O        0.61214    0.08890    0.25623    1.000
    O44      O        0.58663    0.20470    0.14916    1.000
    O45      O        0.94564    0.34670    0.50356    1.000
    O46      O        0.92683    0.44120    0.39190    1.000
    O47      O        0.98112    0.28130    0.68350    1.000
    O48      O        0.01722    0.62240    0.70910    1.000
    C71      C        0.90832    0.37290    0.42700    1.000
    C72      C        0.00900    0.88610    0.69630    1.000
    H43      H        0.01570    0.84180    0.66090    1.000
    C73      C        0.83604    0.31940    0.37360    1.000
    C74      C        0.81300    0.23860    0.40820    1.000
    H44      H        0.84240    0.21710    0.46440    1.000
    C75      C        0.79140    0.35030    0.28960    1.000
    C76      C        0.00790    0.01840    0.69510    1.000
    H45      H        0.01240    0.06210    0.65760    1.000
    C77      C        0.70155    0.22220    0.27580    1.000
    C78      C        0.74590    0.18990    0.35860    1.000
    H46      H        0.73100    0.13480    0.38190    1.000
    C79      C        0.72460    0.30370    0.24150    1.000
    H47      H        0.69460    0.32710    0.18570    1.000
    C80      C        0.62957    0.17030    0.22410    1.000
    H48      H        0.80400    0.41000    0.26400    1.000
    C81      C        0.50000    0.82190    0.25000    1.000
    C82      C        0.50000    0.27260    0.25000    1.000
    C83      C        0.50000    0.41460    0.25000    1.000
    C84      C        0.50000    0.67940    0.25000    1.000
    C85      C        0.00000    0.32190    0.25000    1.000
    C86      C        0.00000    0.77260    0.25000    1.000
    C87      C        0.00000    0.91460    0.25000    1.000
    C88      C        0.00000    0.17940    0.25000    1.000
    C89      C        0.50000    0.17810    0.75000    1.000
    C90      C        0.50000    0.72740    0.75000    1.000
    C91      C        0.50000    0.58540    0.75000    1.000
    C92      C        0.50000    0.32060    0.75000    1.000
    C93      C        0.00000    0.67810    0.75000    1.000
    C94      C        0.00000    0.22740    0.75000    1.000
    C95      C        0.00000    0.08540    0.75000    1.000
    C96      C        0.00000    0.82060    0.75000    1.000
