# CIF file generated by openbabel 3.1.0, see https://openbabel.org
data_I
_chemical_name_common 'image0'
_cell_length_a 12.0648
_cell_length_b 8.1918
_cell_length_c 7.4807
_cell_angle_alpha 90
_cell_angle_beta 97.035
_cell_angle_gamma 90
_space_group_name_H-M_alt 'P 1'
_space_group_name_Hall 'P 1'
loop_
    _symmetry_equiv_pos_as_xyz
    x,y,z
loop_
    _atom_site_label
    _atom_site_type_symbol
    _atom_site_fract_x
    _atom_site_fract_y
    _atom_site_fract_z
    _atom_site_occupancy
    Cu1      Cu       0.43250    0.38320    0.88180    1.000
    Cu2      Cu       0.10580    0.21270    0.18160    1.000
    N1       N        0.52680    0.19080    0.82600    1.000
    N2       N        0.30860    0.30300    0.99590    1.000
    C1       C        0.03250    0.01700    0.23430    1.000
    C2       C        0.54330    0.07750    0.74090    1.000
    C3       C        0.23210    0.26260    0.06410    1.000
    N3       N        0.97850    0.90750    0.26050    1.000
    Cu3      Cu       0.56750    0.88320    0.61820    1.000
    Cu4      Cu       0.89420    0.71270    0.31840    1.000
    N4       N        0.47320    0.69080    0.67400    1.000
    N5       N        0.69140    0.80300    0.50410    1.000
    C4       C        0.96750    0.51700    0.26570    1.000
    C5       C        0.45670    0.57750    0.75910    1.000
    C6       C        0.76790    0.76260    0.43590    1.000
    N6       N        0.02150    0.40750    0.23950    1.000
    Cu5      Cu       0.56750    0.61680    0.11820    1.000
    Cu6      Cu       0.89420    0.78730    0.81840    1.000
    N7       N        0.47320    0.80920    0.17400    1.000
    N8       N        0.69140    0.69700    0.00410    1.000
    C7       C        0.96750    0.98300    0.76570    1.000
    C8       C        0.45670    0.92250    0.25910    1.000
    C9       C        0.76790    0.73740    0.93590    1.000
    N9       N        0.02150    0.09250    0.73950    1.000
    Cu7      Cu       0.43250    0.11680    0.38180    1.000
    Cu8      Cu       0.10580    0.28730    0.68160    1.000
    N10      N        0.52680    0.30920    0.32600    1.000
    N11      N        0.30860    0.19700    0.49590    1.000
    C10      C        0.03250    0.48300    0.73430    1.000
    C11      C        0.54330    0.42250    0.24090    1.000
    C12      C        0.23210    0.23740    0.56410    1.000
    N12      N        0.97850    0.59250    0.76050    1.000
