# CIF file generated by openbabel 3.1.0, see https://openbabel.org
data_I
_chemical_name_common 'image0'
_cell_length_a 6.5688
_cell_length_b 16.3828
_cell_length_c 13.1723
_cell_angle_alpha 90
_cell_angle_beta 90
_cell_angle_gamma 90
_space_group_name_H-M_alt 'P 1'
_space_group_name_Hall 'P 1'
loop_
    _symmetry_equiv_pos_as_xyz
    x,y,z
loop_
    _atom_site_label
    _atom_site_type_symbol
    _atom_site_fract_x
    _atom_site_fract_y
    _atom_site_fract_z
    _atom_site_occupancy
    O1       O        0.16930    0.16838    0.83985    1.000
    C1       C        0.80640    0.02540    0.95430    1.000
    O2       O        0.66930    0.66838    0.33985    1.000
    C2       C        0.30640    0.52540    0.45430    1.000
    O3       O        0.83070    0.33162    0.83985    1.000
    C3       C        0.19360    0.47460    0.95430    1.000
    O4       O        0.33070    0.83162    0.33985    1.000
    C4       C        0.69360    0.97460    0.45430    1.000
    O5       O        0.83070    0.66838    0.16015    1.000
    C5       C        0.19360    0.52540    0.04570    1.000
    O6       O        0.33070    0.16838    0.66015    1.000
    C6       C        0.69360    0.02540    0.54570    1.000
    O7       O        0.16930    0.83162    0.16015    1.000
    C7       C        0.80640    0.97460    0.04570    1.000
    O8       O        0.66930    0.33162    0.66015    1.000
    C8       C        0.30640    0.47460    0.54570    1.000
    O9       O        0.83070    0.83162    0.16015    1.000
    C9       C        0.19360    0.97460    0.04570    1.000
    O10      O        0.33070    0.33162    0.66015    1.000
    C10      C        0.69360    0.47460    0.54570    1.000
    O11      O        0.16930    0.66838    0.16015    1.000
    C11      C        0.80640    0.52540    0.04570    1.000
    O12      O        0.66930    0.16838    0.66015    1.000
    C12      C        0.30640    0.02540    0.54570    1.000
    O13      O        0.16930    0.33162    0.83985    1.000
    C13      C        0.80640    0.47460    0.95430    1.000
    O14      O        0.66930    0.83162    0.33985    1.000
    C14      C        0.30640    0.97460    0.45430    1.000
    O15      O        0.83070    0.16838    0.83985    1.000
    C15      C        0.19360    0.02540    0.95430    1.000
    O16      O        0.33070    0.66838    0.33985    1.000
    C16      C        0.69360    0.52540    0.45430    1.000
    Al1      Al       0.25000    0.25000    0.75000    1.000
    Al2      Al       0.75000    0.25000    0.75000    1.000
    Al3      Al       0.75000    0.75000    0.25000    1.000
    Al4      Al       0.25000    0.75000    0.25000    1.000
    F1       F        0.00000    0.25000    0.69090    1.000
    F2       F        0.50000    0.75000    0.19090    1.000
    F3       F        0.00000    0.75000    0.30910    1.000
    F4       F        0.50000    0.25000    0.80910    1.000
    C17      C        0.00000    0.06440    0.94510    1.000
    C18      C        0.00000    0.13960    0.87330    1.000
    C19      C        0.50000    0.56440    0.44510    1.000
    C20      C        0.50000    0.63960    0.37330    1.000
    C21      C        0.00000    0.43560    0.94510    1.000
    C22      C        0.00000    0.36040    0.87330    1.000
    C23      C        0.50000    0.93560    0.44510    1.000
    C24      C        0.50000    0.86040    0.37330    1.000
    C25      C        0.00000    0.56440    0.05490    1.000
    C26      C        0.00000    0.63960    0.12670    1.000
    C27      C        0.50000    0.06440    0.55490    1.000
    C28      C        0.50000    0.13960    0.62670    1.000
    C29      C        0.00000    0.93560    0.05490    1.000
    C30      C        0.00000    0.86040    0.12670    1.000
    C31      C        0.50000    0.43560    0.55490    1.000
    C32      C        0.50000    0.36040    0.62670    1.000
