# CIF file generated by openbabel 3.1.0, see https://openbabel.org
data_I
_chemical_name_common 'image0'
_cell_length_a 24.3176
_cell_length_b 23.9869
_cell_length_c 31.166
_cell_angle_alpha 90
_cell_angle_beta 104.71
_cell_angle_gamma 90
_space_group_name_H-M_alt 'P 1'
_space_group_name_Hall 'P 1'
loop_
    _symmetry_equiv_pos_as_xyz
    x,y,z
loop_
    _atom_site_label
    _atom_site_type_symbol
    _atom_site_fract_x
    _atom_site_fract_y
    _atom_site_fract_z
    _atom_site_occupancy
    C1       C        0.37760    0.61030    0.52640    1.000
    C2       C        0.37800    0.60640    0.47930    1.000
    C3       C        0.34380    0.64100    0.44870    1.000
    C4       C        0.34170    0.63570    0.40290    1.000
    C5       C        0.37660    0.59500    0.38880    1.000
    C6       C        0.41040    0.56040    0.42150    1.000
    C7       C        0.41210    0.56690    0.46650    1.000
    C8       C        0.44620    0.51690    0.40730    1.000
    C9       C        0.29620    0.67880    0.32940    1.000
    C10      C        0.24780    0.72270    0.26830    1.000
    C11      C        0.31790    0.66370    0.26550    1.000
    C12      C        0.17420    0.79670    0.25910    1.000
    C13      C        0.13730    0.82830    0.22230    1.000
    C14      C        0.09760    0.86440    0.23060    1.000
    C15      C        0.09310    0.87270    0.27560    1.000
    C16      C        0.12660    0.84100    0.30880    1.000
    C17      C        0.16730    0.80290    0.30280    1.000
    C18      C        0.11860    0.84730    0.35420    1.000
    C19      C        0.06140    0.89520    0.19470    1.000
    C20      C        0.34550    0.62770    0.19740    1.000
    C21      C        0.37470    0.58350    0.18560    1.000
    C22      C        0.38140    0.57960    0.14320    1.000
    C23      C        0.35770    0.61970    0.11270    1.000
    C24      C        0.32400    0.65740    0.12160    1.000
    C25      C        0.31830    0.66400    0.16690    1.000
    C26      C        0.31170    0.71050    0.09720    1.000
    C27      C        0.41450    0.52920    0.13350    1.000
    N1       N        0.32800    0.64900    0.30750    1.000
    N2       N        0.27840    0.69930    0.24320    1.000
    N3       N        0.25700    0.71830    0.31240    1.000
    N4       N        0.34250    0.62620    0.24160    1.000
    N5       N        0.21540    0.76650    0.24630    1.000
    N6       N        0.30510    0.67450    0.37450    1.000
    O1       O        0.34890    0.65080    0.53630    1.000
    O2       O        0.29930    0.76800    0.10510    1.000
    O3       O        0.40070    0.57530    0.55307    1.000
    O4       O        0.47350    0.48330    0.43496    1.000
    O5       O        0.44840    0.51510    0.36770    1.000
    O6       O        0.15510    0.83070    0.38570    1.000
    O7       O        0.07360    0.86790    0.35820    1.000
    O8       O        0.02630    0.93040    0.20071    1.000
    O9       O        0.06570    0.88580    0.15580    1.000
    O10      O        0.42560    0.52780    0.09660    1.000
    O11      O        0.43110    0.49390    0.16130    1.000
    Eu1      Eu       0.48002    0.56141    0.61730    1.000
    O12      O        0.34160    0.71880    0.06700    1.000
    C28      C        0.27080    0.67230    0.08650    1.000
    O13      O        0.23760    0.71550    0.08980    1.000
    O14      O        0.26630    0.74060    0.09710    1.000
    O15      O        0.29040    0.68730    0.05300    1.000
    C29      C        0.87760    0.11030    0.52640    1.000
    C30      C        0.87800    0.10640    0.47930    1.000
    C31      C        0.84380    0.14100    0.44870    1.000
    C32      C        0.84170    0.13570    0.40290    1.000
    C33      C        0.87660    0.09500    0.38880    1.000
    C34      C        0.91040    0.06040    0.42150    1.000
    C35      C        0.91210    0.06690    0.46650    1.000
    C36      C        0.94620    0.01690    0.40730    1.000
    C37      C        0.79620    0.17880    0.32940    1.000
    C38      C        0.74780    0.22270    0.26830    1.000
    C39      C        0.81790    0.16370    0.26550    1.000
    C40      C        0.67420    0.29670    0.25910    1.000
    C41      C        0.63730    0.32830    0.22230    1.000
    C42      C        0.59760    0.36440    0.23060    1.000
    C43      C        0.59310    0.37270    0.27560    1.000
    C44      C        0.62660    0.34100    0.30880    1.000
    C45      C        0.66730    0.30290    0.30280    1.000
    C46      C        0.61860    0.34730    0.35420    1.000
    C47      C        0.56140    0.39520    0.19470    1.000
    C48      C        0.84550    0.12770    0.19740    1.000
    C49      C        0.87470    0.08350    0.18560    1.000
    C50      C        0.88140    0.07960    0.14320    1.000
    C51      C        0.85770    0.11970    0.11270    1.000
    C52      C        0.82400    0.15740    0.12160    1.000
    C53      C        0.81830    0.16400    0.16690    1.000
    C54      C        0.81170    0.21050    0.09720    1.000
    C55      C        0.91450    0.02920    0.13350    1.000
    N7       N        0.82800    0.14900    0.30750    1.000
    N8       N        0.77840    0.19930    0.24320    1.000
    N9       N        0.75700    0.21830    0.31240    1.000
    N10      N        0.84250    0.12620    0.24160    1.000
    N11      N        0.71540    0.26650    0.24630    1.000
    N12      N        0.80510    0.17450    0.37450    1.000
    O16      O        0.84890    0.15080    0.53630    1.000
    O17      O        0.79930    0.26800    0.10510    1.000
    O18      O        0.90070    0.07530    0.55307    1.000
    O19      O        0.97350    0.98330    0.43496    1.000
    O20      O        0.94840    0.01510    0.36770    1.000
    O21      O        0.65510    0.33070    0.38570    1.000
    O22      O        0.57360    0.36790    0.35820    1.000
    O23      O        0.52630    0.43040    0.20071    1.000
    O24      O        0.56570    0.38580    0.15580    1.000
    O25      O        0.92560    0.02780    0.09660    1.000
    O26      O        0.93110    0.99390    0.16130    1.000
    Eu2      Eu       0.98002    0.06141    0.61730    1.000
    O27      O        0.84160    0.21880    0.06700    1.000
    C56      C        0.77080    0.17230    0.08650    1.000
    O28      O        0.73760    0.21550    0.08980    1.000
    O29      O        0.76630    0.24060    0.09710    1.000
    O30      O        0.79040    0.18730    0.05300    1.000
    C57      C        0.62240    0.61030    0.97360    1.000
    C58      C        0.62200    0.60640    0.02070    1.000
    C59      C        0.65620    0.64100    0.05130    1.000
    C60      C        0.65830    0.63570    0.09710    1.000
    C61      C        0.62340    0.59500    0.11120    1.000
    C62      C        0.58960    0.56040    0.07850    1.000
    C63      C        0.58790    0.56690    0.03350    1.000
    C64      C        0.55380    0.51690    0.09270    1.000
    C65      C        0.70380    0.67880    0.17060    1.000
    C66      C        0.75220    0.72270    0.23170    1.000
    C67      C        0.68210    0.66370    0.23450    1.000
    C68      C        0.82580    0.79670    0.24090    1.000
    C69      C        0.86270    0.82830    0.27770    1.000
    C70      C        0.90240    0.86440    0.26940    1.000
    C71      C        0.90690    0.87270    0.22440    1.000
    C72      C        0.87340    0.84100    0.19120    1.000
    C73      C        0.83270    0.80290    0.19720    1.000
    C74      C        0.88140    0.84730    0.14580    1.000
    C75      C        0.93860    0.89520    0.30530    1.000
    C76      C        0.65450    0.62770    0.30260    1.000
    C77      C        0.62530    0.58350    0.31440    1.000
    C78      C        0.61860    0.57960    0.35680    1.000
    C79      C        0.64230    0.61970    0.38730    1.000
    C80      C        0.67600    0.65740    0.37840    1.000
    C81      C        0.68170    0.66400    0.33310    1.000
    C82      C        0.68830    0.71050    0.40280    1.000
    C83      C        0.58550    0.52920    0.36650    1.000
    N13      N        0.67200    0.64900    0.19250    1.000
    N14      N        0.72160    0.69930    0.25680    1.000
    N15      N        0.74300    0.71830    0.18760    1.000
    N16      N        0.65750    0.62620    0.25840    1.000
    N17      N        0.78460    0.76650    0.25370    1.000
    N18      N        0.69490    0.67450    0.12550    1.000
    O31      O        0.65110    0.65080    0.96370    1.000
    O32      O        0.70070    0.76800    0.39490    1.000
    O33      O        0.59930    0.57530    0.94693    1.000
    O34      O        0.52650    0.48330    0.06504    1.000
    O35      O        0.55160    0.51510    0.13230    1.000
    O36      O        0.84490    0.83070    0.11430    1.000
    O37      O        0.92640    0.86790    0.14180    1.000
    O38      O        0.97370    0.93040    0.29929    1.000
    O39      O        0.93430    0.88580    0.34420    1.000
    O40      O        0.57440    0.52780    0.40340    1.000
    O41      O        0.56890    0.49390    0.33870    1.000
    Eu3      Eu       0.51998    0.56141    0.88270    1.000
    O42      O        0.65840    0.71880    0.43300    1.000
    C84      C        0.72920    0.67230    0.41350    1.000
    O43      O        0.76240    0.71550    0.41020    1.000
    O44      O        0.73370    0.74060    0.40290    1.000
    O45      O        0.70960    0.68730    0.44700    1.000
    C85      C        0.12240    0.11030    0.97360    1.000
    C86      C        0.12200    0.10640    0.02070    1.000
    C87      C        0.15620    0.14100    0.05130    1.000
    C88      C        0.15830    0.13570    0.09710    1.000
    C89      C        0.12340    0.09500    0.11120    1.000
    C90      C        0.08960    0.06040    0.07850    1.000
    C91      C        0.08790    0.06690    0.03350    1.000
    C92      C        0.05380    0.01690    0.09270    1.000
    C93      C        0.20380    0.17880    0.17060    1.000
    C94      C        0.25220    0.22270    0.23170    1.000
    C95      C        0.18210    0.16370    0.23450    1.000
    C96      C        0.32580    0.29670    0.24090    1.000
    C97      C        0.36270    0.32830    0.27770    1.000
    C98      C        0.40240    0.36440    0.26940    1.000
    C99      C        0.40690    0.37270    0.22440    1.000
    C100     C        0.37340    0.34100    0.19120    1.000
    C101     C        0.33270    0.30290    0.19720    1.000
    C102     C        0.38140    0.34730    0.14580    1.000
    C103     C        0.43860    0.39520    0.30530    1.000
    C104     C        0.15450    0.12770    0.30260    1.000
    C105     C        0.12530    0.08350    0.31440    1.000
    C106     C        0.11860    0.07960    0.35680    1.000
    C107     C        0.14230    0.11970    0.38730    1.000
    C108     C        0.17600    0.15740    0.37840    1.000
    C109     C        0.18170    0.16400    0.33310    1.000
    C110     C        0.18830    0.21050    0.40280    1.000
    C111     C        0.08550    0.02920    0.36650    1.000
    N19      N        0.17200    0.14900    0.19250    1.000
    N20      N        0.22160    0.19930    0.25680    1.000
    N21      N        0.24300    0.21830    0.18760    1.000
    N22      N        0.15750    0.12620    0.25840    1.000
    N23      N        0.28460    0.26650    0.25370    1.000
    N24      N        0.19490    0.17450    0.12550    1.000
    O46      O        0.15110    0.15080    0.96370    1.000
    O47      O        0.20070    0.26800    0.39490    1.000
    O48      O        0.09930    0.07530    0.94693    1.000
    O49      O        0.02650    0.98330    0.06504    1.000
    O50      O        0.05160    0.01510    0.13230    1.000
    O51      O        0.34490    0.33070    0.11430    1.000
    O52      O        0.42640    0.36790    0.14180    1.000
    O53      O        0.47370    0.43040    0.29929    1.000
    O54      O        0.43430    0.38580    0.34420    1.000
    O55      O        0.07440    0.02780    0.40340    1.000
    O56      O        0.06890    0.99390    0.33870    1.000
    Eu4      Eu       0.01998    0.06141    0.88270    1.000
    O57      O        0.15840    0.21880    0.43300    1.000
    C112     C        0.22920    0.17230    0.41350    1.000
    O58      O        0.26240    0.21550    0.41020    1.000
    O59      O        0.23370    0.24060    0.40290    1.000
    O60      O        0.20960    0.18730    0.44700    1.000
    C113     C        0.62240    0.38970    0.47360    1.000
    C114     C        0.62200    0.39360    0.52070    1.000
    C115     C        0.65620    0.35900    0.55130    1.000
    C116     C        0.65830    0.36430    0.59710    1.000
    C117     C        0.62340    0.40500    0.61120    1.000
    C118     C        0.58960    0.43960    0.57850    1.000
    C119     C        0.58790    0.43310    0.53350    1.000
    C120     C        0.55380    0.48310    0.59270    1.000
    C121     C        0.70380    0.32120    0.67060    1.000
    C122     C        0.75220    0.27730    0.73170    1.000
    C123     C        0.68210    0.33630    0.73450    1.000
    C124     C        0.82580    0.20330    0.74090    1.000
    C125     C        0.86270    0.17170    0.77770    1.000
    C126     C        0.90240    0.13560    0.76940    1.000
    C127     C        0.90690    0.12730    0.72440    1.000
    C128     C        0.87340    0.15900    0.69120    1.000
    C129     C        0.83270    0.19710    0.69720    1.000
    C130     C        0.88140    0.15270    0.64580    1.000
    C131     C        0.93860    0.10480    0.80530    1.000
    C132     C        0.65450    0.37230    0.80260    1.000
    C133     C        0.62530    0.41650    0.81440    1.000
    C134     C        0.61860    0.42040    0.85680    1.000
    C135     C        0.64230    0.38030    0.88730    1.000
    C136     C        0.67600    0.34260    0.87840    1.000
    C137     C        0.68170    0.33600    0.83310    1.000
    C138     C        0.68830    0.28950    0.90280    1.000
    C139     C        0.58550    0.47080    0.86650    1.000
    N25      N        0.67200    0.35100    0.69250    1.000
    N26      N        0.72160    0.30070    0.75680    1.000
    N27      N        0.74300    0.28170    0.68760    1.000
    N28      N        0.65750    0.37380    0.75840    1.000
    N29      N        0.78460    0.23350    0.75370    1.000
    N30      N        0.69490    0.32550    0.62550    1.000
    O61      O        0.65110    0.34920    0.46370    1.000
    O62      O        0.70070    0.23200    0.89490    1.000
    O63      O        0.59930    0.42470    0.44693    1.000
    O64      O        0.52650    0.51670    0.56504    1.000
    O65      O        0.55160    0.48490    0.63230    1.000
    O66      O        0.84490    0.16930    0.61430    1.000
    O67      O        0.92640    0.13210    0.64180    1.000
    O68      O        0.97370    0.06960    0.79929    1.000
    O69      O        0.93430    0.11420    0.84420    1.000
    O70      O        0.57440    0.47220    0.90340    1.000
    O71      O        0.56890    0.50610    0.83870    1.000
    Eu5      Eu       0.51998    0.43859    0.38270    1.000
    O72      O        0.65840    0.28120    0.93300    1.000
    C140     C        0.72920    0.32770    0.91350    1.000
    O73      O        0.76240    0.28450    0.91020    1.000
    O74      O        0.73370    0.25940    0.90290    1.000
    O75      O        0.70960    0.31270    0.94700    1.000
    C141     C        0.12240    0.88970    0.47360    1.000
    C142     C        0.12200    0.89360    0.52070    1.000
    C143     C        0.15620    0.85900    0.55130    1.000
    C144     C        0.15830    0.86430    0.59710    1.000
    C145     C        0.12340    0.90500    0.61120    1.000
    C146     C        0.08960    0.93960    0.57850    1.000
    C147     C        0.08790    0.93310    0.53350    1.000
    C148     C        0.05380    0.98310    0.59270    1.000
    C149     C        0.20380    0.82120    0.67060    1.000
    C150     C        0.25220    0.77730    0.73170    1.000
    C151     C        0.18210    0.83630    0.73450    1.000
    C152     C        0.32580    0.70330    0.74090    1.000
    C153     C        0.36270    0.67170    0.77770    1.000
    C154     C        0.40240    0.63560    0.76940    1.000
    C155     C        0.40690    0.62730    0.72440    1.000
    C156     C        0.37340    0.65900    0.69120    1.000
    C157     C        0.33270    0.69710    0.69720    1.000
    C158     C        0.38140    0.65270    0.64580    1.000
    C159     C        0.43860    0.60480    0.80530    1.000
    C160     C        0.15450    0.87230    0.80260    1.000
    C161     C        0.12530    0.91650    0.81440    1.000
    C162     C        0.11860    0.92040    0.85680    1.000
    C163     C        0.14230    0.88030    0.88730    1.000
    C164     C        0.17600    0.84260    0.87840    1.000
    C165     C        0.18170    0.83600    0.83310    1.000
    C166     C        0.18830    0.78950    0.90280    1.000
    C167     C        0.08550    0.97080    0.86650    1.000
    N31      N        0.17200    0.85100    0.69250    1.000
    N32      N        0.22160    0.80070    0.75680    1.000
    N33      N        0.24300    0.78170    0.68760    1.000
    N34      N        0.15750    0.87380    0.75840    1.000
    N35      N        0.28460    0.73350    0.75370    1.000
    N36      N        0.19490    0.82550    0.62550    1.000
    O76      O        0.15110    0.84920    0.46370    1.000
    O77      O        0.20070    0.73200    0.89490    1.000
    O78      O        0.09930    0.92470    0.44693    1.000
    O79      O        0.02650    0.01670    0.56504    1.000
    O80      O        0.05160    0.98490    0.63230    1.000
    O81      O        0.34490    0.66930    0.61430    1.000
    O82      O        0.42640    0.63210    0.64180    1.000
    O83      O        0.47370    0.56960    0.79929    1.000
    O84      O        0.43430    0.61420    0.84420    1.000
    O85      O        0.07440    0.97220    0.90340    1.000
    O86      O        0.06890    0.00610    0.83870    1.000
    Eu6      Eu       0.01998    0.93859    0.38270    1.000
    O87      O        0.15840    0.78120    0.93300    1.000
    C168     C        0.22920    0.82770    0.91350    1.000
    O88      O        0.26240    0.78450    0.91020    1.000
    O89      O        0.23370    0.75940    0.90290    1.000
    O90      O        0.20960    0.81270    0.94700    1.000
    C169     C        0.37760    0.38970    0.02640    1.000
    C170     C        0.37800    0.39360    0.97930    1.000
    C171     C        0.34380    0.35900    0.94870    1.000
    C172     C        0.34170    0.36430    0.90290    1.000
    C173     C        0.37660    0.40500    0.88880    1.000
    C174     C        0.41040    0.43960    0.92150    1.000
    C175     C        0.41210    0.43310    0.96650    1.000
    C176     C        0.44620    0.48310    0.90730    1.000
    C177     C        0.29620    0.32120    0.82940    1.000
    C178     C        0.24780    0.27730    0.76830    1.000
    C179     C        0.31790    0.33630    0.76550    1.000
    C180     C        0.17420    0.20330    0.75910    1.000
    C181     C        0.13730    0.17170    0.72230    1.000
    C182     C        0.09760    0.13560    0.73060    1.000
    C183     C        0.09310    0.12730    0.77560    1.000
    C184     C        0.12660    0.15900    0.80880    1.000
    C185     C        0.16730    0.19710    0.80280    1.000
    C186     C        0.11860    0.15270    0.85420    1.000
    C187     C        0.06140    0.10480    0.69470    1.000
    C188     C        0.34550    0.37230    0.69740    1.000
    C189     C        0.37470    0.41650    0.68560    1.000
    C190     C        0.38140    0.42040    0.64320    1.000
    C191     C        0.35770    0.38030    0.61270    1.000
    C192     C        0.32400    0.34260    0.62160    1.000
    C193     C        0.31830    0.33600    0.66690    1.000
    C194     C        0.31170    0.28950    0.59720    1.000
    C195     C        0.41450    0.47080    0.63350    1.000
    N37      N        0.32800    0.35100    0.80750    1.000
    N38      N        0.27840    0.30070    0.74320    1.000
    N39      N        0.25700    0.28170    0.81240    1.000
    N40      N        0.34250    0.37380    0.74160    1.000
    N41      N        0.21540    0.23350    0.74630    1.000
    N42      N        0.30510    0.32550    0.87450    1.000
    O91      O        0.34890    0.34920    0.03630    1.000
    O92      O        0.29930    0.23200    0.60510    1.000
    O93      O        0.40070    0.42470    0.05307    1.000
    O94      O        0.47350    0.51670    0.93496    1.000
    O95      O        0.44840    0.48490    0.86770    1.000
    O96      O        0.15510    0.16930    0.88570    1.000
    O97      O        0.07360    0.13210    0.85820    1.000
    O98      O        0.02630    0.06960    0.70071    1.000
    O99      O        0.06570    0.11420    0.65580    1.000
    O100     O        0.42560    0.47220    0.59660    1.000
    O101     O        0.43110    0.50610    0.66130    1.000
    Eu7      Eu       0.48002    0.43859    0.11730    1.000
    O102     O        0.34160    0.28120    0.56700    1.000
    C196     C        0.27080    0.32770    0.58650    1.000
    O103     O        0.23760    0.28450    0.58980    1.000
    O104     O        0.26630    0.25940    0.59710    1.000
    O105     O        0.29040    0.31270    0.55300    1.000
    C197     C        0.87760    0.88970    0.02640    1.000
    C198     C        0.87800    0.89360    0.97930    1.000
    C199     C        0.84380    0.85900    0.94870    1.000
    C200     C        0.84170    0.86430    0.90290    1.000
    C201     C        0.87660    0.90500    0.88880    1.000
    C202     C        0.91040    0.93960    0.92150    1.000
    C203     C        0.91210    0.93310    0.96650    1.000
    C204     C        0.94620    0.98310    0.90730    1.000
    C205     C        0.79620    0.82120    0.82940    1.000
    C206     C        0.74780    0.77730    0.76830    1.000
    C207     C        0.81790    0.83630    0.76550    1.000
    C208     C        0.67420    0.70330    0.75910    1.000
    C209     C        0.63730    0.67170    0.72230    1.000
    C210     C        0.59760    0.63560    0.73060    1.000
    C211     C        0.59310    0.62730    0.77560    1.000
    C212     C        0.62660    0.65900    0.80880    1.000
    C213     C        0.66730    0.69710    0.80280    1.000
    C214     C        0.61860    0.65270    0.85420    1.000
    C215     C        0.56140    0.60480    0.69470    1.000
    C216     C        0.84550    0.87230    0.69740    1.000
    C217     C        0.87470    0.91650    0.68560    1.000
    C218     C        0.88140    0.92040    0.64320    1.000
    C219     C        0.85770    0.88030    0.61270    1.000
    C220     C        0.82400    0.84260    0.62160    1.000
    C221     C        0.81830    0.83600    0.66690    1.000
    C222     C        0.81170    0.78950    0.59720    1.000
    C223     C        0.91450    0.97080    0.63350    1.000
    N43      N        0.82800    0.85100    0.80750    1.000
    N44      N        0.77840    0.80070    0.74320    1.000
    N45      N        0.75700    0.78170    0.81240    1.000
    N46      N        0.84250    0.87380    0.74160    1.000
    N47      N        0.71540    0.73350    0.74630    1.000
    N48      N        0.80510    0.82550    0.87450    1.000
    O106     O        0.84890    0.84920    0.03630    1.000
    O107     O        0.79930    0.73200    0.60510    1.000
    O108     O        0.90070    0.92470    0.05307    1.000
    O109     O        0.97350    0.01670    0.93496    1.000
    O110     O        0.94840    0.98490    0.86770    1.000
    O111     O        0.65510    0.66930    0.88570    1.000
    O112     O        0.57360    0.63210    0.85820    1.000
    O113     O        0.52630    0.56960    0.70071    1.000
    O114     O        0.56570    0.61420    0.65580    1.000
    O115     O        0.92560    0.97220    0.59660    1.000
    O116     O        0.93110    0.00610    0.66130    1.000
    Eu8      Eu       0.98002    0.93859    0.11730    1.000
    O117     O        0.84160    0.78120    0.56700    1.000
    C224     C        0.77080    0.82770    0.58650    1.000
    O118     O        0.73760    0.78450    0.58980    1.000
    O119     O        0.76630    0.75940    0.59710    1.000
    O120     O        0.79040    0.81270    0.55300    1.000
    Na1      Na       0.00000    0.99540    0.25000    1.000
    Na2      Na       0.50000    0.49540    0.25000    1.000
    Na3      Na       0.00000    0.00460    0.75000    1.000
    Na4      Na       0.50000    0.50460    0.75000    1.000
