# CIF file generated by openbabel 3.1.0, see https://openbabel.org
data_I
_chemical_name_common 'image0'
_cell_length_a 40.5408
_cell_length_b 40.5408
_cell_length_c 17.6055
_cell_angle_alpha 90
_cell_angle_beta 90
_cell_angle_gamma 90
_space_group_name_H-M_alt 'P 1'
_space_group_name_Hall 'P 1'
loop_
    _symmetry_equiv_pos_as_xyz
    x,y,z
loop_
    _atom_site_label
    _atom_site_type_symbol
    _atom_site_fract_x
    _atom_site_fract_y
    _atom_site_fract_z
    _atom_site_occupancy
    Mn1      Mn       0.57439    0.45518    0.32838    1.000
    O1       O        0.59564    0.48175    0.25620    1.000
    O2       O        0.49600    0.47497    0.18383    1.000
    O3       O        0.54562    0.42969    0.39455    1.000
    N1       N        0.53268    0.46152    0.27646    1.000
    N2       N        0.50535    0.44557    0.31224    1.000
    C1       C        0.58417    0.49710    0.19910    1.000
    C2       C        0.60535    0.51721    0.15800    1.000
    H1       H        0.62700    0.52070    0.17690    1.000
    C3       C        0.59670    0.53200    0.09270    1.000
    H2       H        0.61180    0.54650    0.06850    1.000
    C4       C        0.56480    0.52640    0.05830    1.000
    H3       H        0.55960    0.53400    0.00870    1.000
    C5       C        0.54173    0.50860    0.10380    1.000
    H4       H        0.51950    0.50700    0.08750    1.000
    C6       C        0.55099    0.49404    0.17050    1.000
    C7       C        0.52545    0.47642    0.21200    1.000
    C8       C        0.51476    0.42998    0.37290    1.000
    C9       C        0.48987    0.41220    0.41910    1.000
    H5       H        0.47570    0.39920    0.38430    1.000
    H6       H        0.47560    0.42880    0.44410    1.000
    C10      C        0.50290    0.38952    0.47860    1.000
    H7       H        0.51840    0.37390    0.45550    1.000
    H8       H        0.48460    0.37730    0.50170    1.000
    H9       H        0.51430    0.40240    0.51780    1.000
    Mn2      Mn       0.45902    0.46272    0.25253    1.000
    O4       O        0.44998    0.42109    0.21261    1.000
    O5       O        0.38483    0.43293    0.39966    1.000
    O6       O        0.46183    0.50500    0.30337    1.000
    N3       N        0.42408    0.45735    0.32713    1.000
    N4       N        0.41891    0.48558    0.37260    1.000
    N5       N        0.42570    0.48829    0.16580    1.000
    C11      C        0.42744    0.39900    0.23240    1.000
    C12      C        0.42526    0.37026    0.18800    1.000
    H10      H        0.43950    0.36750    0.14570    1.000
    C13      C        0.40281    0.34635    0.20530    1.000
    H11      H        0.40180    0.32700    0.17480    1.000
    C14      C        0.38149    0.34955    0.26600    1.000
    H12      H        0.36600    0.33260    0.27730    1.000
    C15      C        0.38292    0.37740    0.30990    1.000
    H13      H        0.36810    0.37970    0.35140    1.000
    C16      C        0.40564    0.40256    0.29510    1.000
    C17      C        0.40472    0.43209    0.34380    1.000
    C18      C        0.43940    0.50888    0.35490    1.000
    C19      C        0.43636    0.54208    0.39300    1.000
    H14      H        0.41930    0.54050    0.43310    1.000
    H15      H        0.45760    0.54730    0.41810    1.000
    C20      C        0.42820    0.56830    0.34420    1.000
    H16      H        0.44760    0.58230    0.33640    1.000
    H17      H        0.41040    0.58140    0.36700    1.000
    H18      H        0.42080    0.55950    0.29530    1.000
    C21      C        0.43670    0.51940    0.14220    1.000
    H19      H        0.45810    0.52700    0.15630    1.000
    C22      C        0.41560    0.53980    0.09670    1.000
    H20      H        0.42180    0.56170    0.08290    1.000
    C23      C        0.38481    0.52570    0.07310    1.000
    C24      C        0.37529    0.50460    0.11430    1.000
    H21      H        0.35230    0.50020    0.11690    1.000
    C25      C        0.39666    0.48620    0.15900    1.000
    H22      H        0.38650    0.46940    0.18850    1.000
    C26      C        0.36140    0.54450    0.01970    1.000
    H23      H        0.34480    0.52880    0.99990    1.000
    H24      H        0.34940    0.56130    0.04980    1.000
    Mn3      Mn       0.61301    0.52921    0.52836    1.000
    O7       O        0.65088    0.50868    0.56457    1.000
    O8       O        0.61526    0.44753    0.38603    1.000
    O9       O        0.57260    0.54440    0.48114    1.000
    N6       N        0.60602    0.49361    0.45623    1.000
    N7       N        0.57594    0.49608    0.41500    1.000
    N8       N        0.31004    0.60828    0.80630    1.000
    C27      C        0.66795    0.48388    0.53420    1.000
    C28      C        0.69928    0.47760    0.56330    1.000
    H25      H        0.70750    0.49110    0.60320    1.000
    C29      C        0.71859    0.45259    0.53630    1.000
    H26      H        0.73950    0.44870    0.55870    1.000
    C30      C        0.70828    0.43295    0.47720    1.000
    H27      H        0.72220    0.41610    0.45750    1.000
    C31      C        0.67718    0.43823    0.44720    1.000
    H28      H        0.66950    0.42420    0.40770    1.000
    C32      C        0.65680    0.46353    0.47330    1.000
    C33      C        0.62426    0.46807    0.43690    1.000
    C34      C        0.56107    0.52342    0.43240    1.000
    C35      C        0.52923    0.53168    0.39460    1.000
    H29      H        0.52000    0.51200    0.36900    1.000
    H30      H        0.51300    0.53960    0.43240    1.000
    C36      C        0.32898    0.58336    0.78530    1.000
    H31      H        0.32830    0.57660    0.73360    1.000
    C37      C        0.34944    0.56686    0.83350    1.000
    H32      H        0.36230    0.54890    0.81560    1.000
    C38      C        0.35129    0.57629    0.90790    1.000
    C39      C        0.33132    0.60153    0.93090    1.000
    H33      H        0.33160    0.60850    0.98240    1.000
    C40      C        0.31084    0.61694    0.87990    1.000
    H34      H        0.29690    0.63420    0.89720    1.000
    C41      C        0.37550    0.55920    0.96180    1.000
    H35      H        0.38830    0.54270    0.93280    1.000
    H36      H        0.39120    0.57590    0.98140    1.000
    Mn4      Mn       0.07439    0.95518    0.82838    1.000
    O10      O        0.09564    0.98175    0.75620    1.000
    O11      O        0.99600    0.97497    0.68383    1.000
    O12      O        0.04562    0.92969    0.89455    1.000
    N9       N        0.03268    0.96152    0.77646    1.000
    N10      N        0.00535    0.94557    0.81224    1.000
    C42      C        0.08417    0.99710    0.69910    1.000
    C43      C        0.10535    0.01721    0.65800    1.000
    H37      H        0.12700    0.02070    0.67690    1.000
    C44      C        0.09670    0.03200    0.59270    1.000
    H38      H        0.11180    0.04650    0.56850    1.000
    C45      C        0.06480    0.02640    0.55830    1.000
    H39      H        0.05960    0.03400    0.50870    1.000
    C46      C        0.04173    0.00860    0.60380    1.000
    H40      H        0.01950    0.00700    0.58750    1.000
    C47      C        0.05099    0.99404    0.67050    1.000
    C48      C        0.02545    0.97642    0.71200    1.000
    C49      C        0.01476    0.92998    0.87290    1.000
    C50      C        0.98987    0.91220    0.91910    1.000
    H41      H        0.97570    0.89920    0.88430    1.000
    H42      H        0.97560    0.92880    0.94410    1.000
    C51      C        0.00290    0.88952    0.97860    1.000
    H43      H        0.01840    0.87390    0.95550    1.000
    H44      H        0.98460    0.87730    0.00170    1.000
    H45      H        0.01430    0.90240    0.01780    1.000
    Mn5      Mn       0.95902    0.96272    0.75253    1.000
    O13      O        0.94998    0.92109    0.71261    1.000
    O14      O        0.88483    0.93293    0.89966    1.000
    O15      O        0.96183    0.00500    0.80337    1.000
    N11      N        0.92408    0.95735    0.82713    1.000
    N12      N        0.91891    0.98558    0.87260    1.000
    N13      N        0.92570    0.98829    0.66580    1.000
    C52      C        0.92744    0.89900    0.73240    1.000
    C53      C        0.92526    0.87026    0.68800    1.000
    H46      H        0.93950    0.86750    0.64570    1.000
    C54      C        0.90281    0.84635    0.70530    1.000
    H47      H        0.90180    0.82700    0.67480    1.000
    C55      C        0.88149    0.84955    0.76600    1.000
    H48      H        0.86600    0.83260    0.77730    1.000
    C56      C        0.88292    0.87740    0.80990    1.000
    H49      H        0.86810    0.87970    0.85140    1.000
    C57      C        0.90564    0.90256    0.79510    1.000
    C58      C        0.90472    0.93209    0.84380    1.000
    C59      C        0.93940    0.00888    0.85490    1.000
    C60      C        0.93636    0.04208    0.89300    1.000
    H50      H        0.91930    0.04050    0.93310    1.000
    H51      H        0.95760    0.04730    0.91810    1.000
    C61      C        0.92820    0.06830    0.84420    1.000
    H52      H        0.94760    0.08230    0.83640    1.000
    H53      H        0.91040    0.08140    0.86700    1.000
    H54      H        0.92080    0.05950    0.79530    1.000
    C62      C        0.93670    0.01940    0.64220    1.000
    H55      H        0.95810    0.02700    0.65630    1.000
    C63      C        0.91560    0.03980    0.59670    1.000
    H56      H        0.92180    0.06170    0.58290    1.000
    C64      C        0.88481    0.02570    0.57310    1.000
    C65      C        0.87529    0.00460    0.61430    1.000
    H57      H        0.85230    0.00020    0.61690    1.000
    C66      C        0.89666    0.98620    0.65900    1.000
    H58      H        0.88650    0.96940    0.68850    1.000
    C67      C        0.86140    0.04450    0.51970    1.000
    H59      H        0.84480    0.02880    0.49990    1.000
    H60      H        0.84940    0.06130    0.54980    1.000
    Mn6      Mn       0.11301    0.02921    0.02836    1.000
    O16      O        0.15088    0.00868    0.06457    1.000
    O17      O        0.11526    0.94753    0.88603    1.000
    O18      O        0.07260    0.04440    0.98114    1.000
    N14      N        0.10602    0.99361    0.95623    1.000
    N15      N        0.07594    0.99608    0.91500    1.000
    N16      N        0.81004    0.10828    0.30630    1.000
    C68      C        0.16795    0.98388    0.03420    1.000
    C69      C        0.19928    0.97760    0.06330    1.000
    H61      H        0.20750    0.99110    0.10320    1.000
    C70      C        0.21859    0.95259    0.03630    1.000
    H62      H        0.23950    0.94870    0.05870    1.000
    C71      C        0.20828    0.93295    0.97720    1.000
    H63      H        0.22220    0.91610    0.95750    1.000
    C72      C        0.17718    0.93823    0.94720    1.000
    H64      H        0.16950    0.92420    0.90770    1.000
    C73      C        0.15680    0.96353    0.97330    1.000
    C74      C        0.12426    0.96807    0.93690    1.000
    C75      C        0.06107    0.02342    0.93240    1.000
    C76      C        0.02923    0.03168    0.89460    1.000
    H65      H        0.02000    0.01200    0.86900    1.000
    H66      H        0.01300    0.03960    0.93240    1.000
    C77      C        0.82898    0.08336    0.28530    1.000
    H67      H        0.82830    0.07660    0.23360    1.000
    C78      C        0.84944    0.06686    0.33350    1.000
    H68      H        0.86230    0.04890    0.31560    1.000
    C79      C        0.85129    0.07629    0.40790    1.000
    C80      C        0.83132    0.10153    0.43090    1.000
    H69      H        0.83160    0.10850    0.48240    1.000
    C81      C        0.81084    0.11694    0.37990    1.000
    H70      H        0.79690    0.13420    0.39720    1.000
    C82      C        0.87550    0.05920    0.46180    1.000
    H71      H        0.88830    0.04270    0.43280    1.000
    H72      H        0.89120    0.07590    0.48140    1.000
    Mn7      Mn       0.92561    0.54482    0.82838    1.000
    O19      O        0.90436    0.51825    0.75620    1.000
    O20      O        0.00400    0.52503    0.68383    1.000
    O21      O        0.95438    0.57031    0.89455    1.000
    N17      N        0.96732    0.53848    0.77646    1.000
    N18      N        0.99465    0.55443    0.81224    1.000
    C83      C        0.91583    0.50290    0.69910    1.000
    C84      C        0.89465    0.48279    0.65800    1.000
    H73      H        0.87300    0.47930    0.67690    1.000
    C85      C        0.90330    0.46800    0.59270    1.000
    H74      H        0.88820    0.45350    0.56850    1.000
    C86      C        0.93520    0.47360    0.55830    1.000
    H75      H        0.94040    0.46600    0.50870    1.000
    C87      C        0.95827    0.49140    0.60380    1.000
    H76      H        0.98050    0.49300    0.58750    1.000
    C88      C        0.94901    0.50596    0.67050    1.000
    C89      C        0.97455    0.52358    0.71200    1.000
    C90      C        0.98524    0.57002    0.87290    1.000
    C91      C        0.01013    0.58780    0.91910    1.000
    H77      H        0.02430    0.60080    0.88430    1.000
    H78      H        0.02440    0.57120    0.94410    1.000
    C92      C        0.99710    0.61048    0.97860    1.000
    H79      H        0.98160    0.62610    0.95550    1.000
    H80      H        0.01540    0.62270    0.00170    1.000
    H81      H        0.98570    0.59760    0.01780    1.000
    Mn8      Mn       0.04098    0.53728    0.75253    1.000
    O22      O        0.05002    0.57891    0.71261    1.000
    O23      O        0.11517    0.56707    0.89966    1.000
    O24      O        0.03817    0.49500    0.80337    1.000
    N19      N        0.07592    0.54265    0.82713    1.000
    N20      N        0.08109    0.51442    0.87260    1.000
    N21      N        0.07430    0.51171    0.66580    1.000
    C93      C        0.07256    0.60100    0.73240    1.000
    C94      C        0.07474    0.62974    0.68800    1.000
    H82      H        0.06050    0.63250    0.64570    1.000
    C95      C        0.09719    0.65365    0.70530    1.000
    H83      H        0.09820    0.67300    0.67480    1.000
    C96      C        0.11851    0.65045    0.76600    1.000
    H84      H        0.13400    0.66740    0.77730    1.000
    C97      C        0.11708    0.62260    0.80990    1.000
    H85      H        0.13190    0.62030    0.85140    1.000
    C98      C        0.09436    0.59744    0.79510    1.000
    C99      C        0.09528    0.56791    0.84380    1.000
    C100     C        0.06060    0.49112    0.85490    1.000
    C101     C        0.06364    0.45792    0.89300    1.000
    H86      H        0.08070    0.45950    0.93310    1.000
    H87      H        0.04240    0.45270    0.91810    1.000
    C102     C        0.07180    0.43170    0.84420    1.000
    H88      H        0.05240    0.41770    0.83640    1.000
    H89      H        0.08960    0.41860    0.86700    1.000
    H90      H        0.07920    0.44050    0.79530    1.000
    C103     C        0.06330    0.48060    0.64220    1.000
    H91      H        0.04190    0.47300    0.65630    1.000
    C104     C        0.08440    0.46020    0.59670    1.000
    H92      H        0.07820    0.43830    0.58290    1.000
    C105     C        0.11519    0.47430    0.57310    1.000
    C106     C        0.12471    0.49540    0.61430    1.000
    H93      H        0.14770    0.49980    0.61690    1.000
    C107     C        0.10334    0.51380    0.65900    1.000
    H94      H        0.11350    0.53060    0.68850    1.000
    C108     C        0.13860    0.45550    0.51970    1.000
    H95      H        0.15520    0.47120    0.49990    1.000
    H96      H        0.15060    0.43870    0.54980    1.000
    Mn9      Mn       0.88699    0.47079    0.02836    1.000
    O25      O        0.84912    0.49132    0.06457    1.000
    O26      O        0.88474    0.55247    0.88603    1.000
    O27      O        0.92740    0.45560    0.98114    1.000
    N22      N        0.89398    0.50639    0.95623    1.000
    N23      N        0.92406    0.50392    0.91500    1.000
    N24      N        0.18996    0.39172    0.30630    1.000
    C109     C        0.83205    0.51612    0.03420    1.000
    C110     C        0.80072    0.52240    0.06330    1.000
    H97      H        0.79250    0.50890    0.10320    1.000
    C111     C        0.78141    0.54741    0.03630    1.000
    H98      H        0.76050    0.55130    0.05870    1.000
    C112     C        0.79172    0.56705    0.97720    1.000
    H99      H        0.77780    0.58390    0.95750    1.000
    C113     C        0.82282    0.56177    0.94720    1.000
    H100     H        0.83050    0.57580    0.90770    1.000
    C114     C        0.84320    0.53647    0.97330    1.000
    C115     C        0.87574    0.53193    0.93690    1.000
    C116     C        0.93893    0.47658    0.93240    1.000
    C117     C        0.97077    0.46832    0.89460    1.000
    H101     H        0.98000    0.48800    0.86900    1.000
    H102     H        0.98700    0.46040    0.93240    1.000
    C118     C        0.17102    0.41664    0.28530    1.000
    H103     H        0.17170    0.42340    0.23360    1.000
    C119     C        0.15056    0.43314    0.33350    1.000
    H104     H        0.13770    0.45110    0.31560    1.000
    C120     C        0.14871    0.42371    0.40790    1.000
    C121     C        0.16868    0.39847    0.43090    1.000
    H105     H        0.16840    0.39150    0.48240    1.000
    C122     C        0.18916    0.38306    0.37990    1.000
    H106     H        0.20310    0.36580    0.39720    1.000
    C123     C        0.12450    0.44080    0.46180    1.000
    H107     H        0.11170    0.45730    0.43280    1.000
    H108     H        0.10880    0.42410    0.48140    1.000
    Mn10     Mn       0.42561    0.04482    0.32838    1.000
    O28      O        0.40436    0.01825    0.25620    1.000
    O29      O        0.50400    0.02503    0.18383    1.000
    O30      O        0.45438    0.07031    0.39455    1.000
    N25      N        0.46732    0.03848    0.27646    1.000
    N26      N        0.49465    0.05443    0.31224    1.000
    C124     C        0.41583    0.00290    0.19910    1.000
    C125     C        0.39465    0.98279    0.15800    1.000
    H109     H        0.37300    0.97930    0.17690    1.000
    C126     C        0.40330    0.96800    0.09270    1.000
    H110     H        0.38820    0.95350    0.06850    1.000
    C127     C        0.43520    0.97360    0.05830    1.000
    H111     H        0.44040    0.96600    0.00870    1.000
    C128     C        0.45827    0.99140    0.10380    1.000
    H112     H        0.48050    0.99300    0.08750    1.000
    C129     C        0.44901    0.00596    0.17050    1.000
    C130     C        0.47455    0.02358    0.21200    1.000
    C131     C        0.48524    0.07002    0.37290    1.000
    C132     C        0.51013    0.08780    0.41910    1.000
    H113     H        0.52430    0.10080    0.38430    1.000
    H114     H        0.52440    0.07120    0.44410    1.000
    C133     C        0.49710    0.11048    0.47860    1.000
    H115     H        0.48160    0.12610    0.45550    1.000
    H116     H        0.51540    0.12270    0.50170    1.000
    H117     H        0.48570    0.09760    0.51780    1.000
    Mn11     Mn       0.54098    0.03728    0.25253    1.000
    O31      O        0.55002    0.07891    0.21261    1.000
    O32      O        0.61517    0.06707    0.39966    1.000
    O33      O        0.53817    0.99500    0.30337    1.000
    N27      N        0.57592    0.04265    0.32713    1.000
    N28      N        0.58109    0.01442    0.37260    1.000
    N29      N        0.57430    0.01171    0.16580    1.000
    C134     C        0.57256    0.10100    0.23240    1.000
    C135     C        0.57474    0.12974    0.18800    1.000
    H118     H        0.56050    0.13250    0.14570    1.000
    C136     C        0.59719    0.15365    0.20530    1.000
    H119     H        0.59820    0.17300    0.17480    1.000
    C137     C        0.61851    0.15045    0.26600    1.000
    H120     H        0.63400    0.16740    0.27730    1.000
    C138     C        0.61708    0.12260    0.30990    1.000
    H121     H        0.63190    0.12030    0.35140    1.000
    C139     C        0.59436    0.09744    0.29510    1.000
    C140     C        0.59528    0.06791    0.34380    1.000
    C141     C        0.56060    0.99112    0.35490    1.000
    C142     C        0.56364    0.95792    0.39300    1.000
    H122     H        0.58070    0.95950    0.43310    1.000
    H123     H        0.54240    0.95270    0.41810    1.000
    C143     C        0.57180    0.93170    0.34420    1.000
    H124     H        0.55240    0.91770    0.33640    1.000
    H125     H        0.58960    0.91860    0.36700    1.000
    H126     H        0.57920    0.94050    0.29530    1.000
    C144     C        0.56330    0.98060    0.14220    1.000
    H127     H        0.54190    0.97300    0.15630    1.000
    C145     C        0.58440    0.96020    0.09670    1.000
    H128     H        0.57820    0.93830    0.08290    1.000
    C146     C        0.61519    0.97430    0.07310    1.000
    C147     C        0.62471    0.99540    0.11430    1.000
    H129     H        0.64770    0.99980    0.11690    1.000
    C148     C        0.60334    0.01380    0.15900    1.000
    H130     H        0.61350    0.03060    0.18850    1.000
    C149     C        0.63860    0.95550    0.01970    1.000
    H131     H        0.65520    0.97120    0.99990    1.000
    H132     H        0.65060    0.93870    0.04980    1.000
    Mn12     Mn       0.38699    0.97079    0.52836    1.000
    O34      O        0.34912    0.99132    0.56457    1.000
    O35      O        0.38474    0.05247    0.38603    1.000
    O36      O        0.42740    0.95560    0.48114    1.000
    N30      N        0.39398    0.00639    0.45623    1.000
    N31      N        0.42406    0.00392    0.41500    1.000
    N32      N        0.68996    0.89172    0.80630    1.000
    C150     C        0.33205    0.01612    0.53420    1.000
    C151     C        0.30072    0.02240    0.56330    1.000
    H133     H        0.29250    0.00890    0.60320    1.000
    C152     C        0.28141    0.04741    0.53630    1.000
    H134     H        0.26050    0.05130    0.55870    1.000
    C153     C        0.29172    0.06705    0.47720    1.000
    H135     H        0.27780    0.08390    0.45750    1.000
    C154     C        0.32282    0.06177    0.44720    1.000
    H136     H        0.33050    0.07580    0.40770    1.000
    C155     C        0.34320    0.03647    0.47330    1.000
    C156     C        0.37574    0.03193    0.43690    1.000
    C157     C        0.43893    0.97658    0.43240    1.000
    C158     C        0.47077    0.96832    0.39460    1.000
    H137     H        0.48000    0.98800    0.36900    1.000
    H138     H        0.48700    0.96040    0.43240    1.000
    C159     C        0.67102    0.91664    0.78530    1.000
    H139     H        0.67170    0.92340    0.73360    1.000
    C160     C        0.65056    0.93314    0.83350    1.000
    H140     H        0.63770    0.95110    0.81560    1.000
    C161     C        0.64871    0.92371    0.90790    1.000
    C162     C        0.66868    0.89847    0.93090    1.000
    H141     H        0.66840    0.89150    0.98240    1.000
    C163     C        0.68916    0.88306    0.87990    1.000
    H142     H        0.70310    0.86580    0.89720    1.000
    C164     C        0.62450    0.94080    0.96180    1.000
    H143     H        0.61170    0.95730    0.93280    1.000
    H144     H        0.60880    0.92410    0.98140    1.000
    Mn13     Mn       0.29482    0.82439    0.57838    1.000
    O37      O        0.26825    0.84564    0.50620    1.000
    O38      O        0.27503    0.74600    0.43383    1.000
    O39      O        0.32031    0.79562    0.64455    1.000
    N33      N        0.28848    0.78268    0.52646    1.000
    N34      N        0.30443    0.75535    0.56224    1.000
    C165     C        0.25290    0.83417    0.44910    1.000
    C166     C        0.23279    0.85535    0.40800    1.000
    H145     H        0.22930    0.87700    0.42690    1.000
    C167     C        0.21800    0.84670    0.34270    1.000
    H146     H        0.20350    0.86180    0.31850    1.000
    C168     C        0.22360    0.81480    0.30830    1.000
    H147     H        0.21600    0.80960    0.25870    1.000
    C169     C        0.24140    0.79173    0.35380    1.000
    H148     H        0.24300    0.76950    0.33750    1.000
    C170     C        0.25596    0.80099    0.42050    1.000
    C171     C        0.27358    0.77545    0.46200    1.000
    C172     C        0.32002    0.76476    0.62290    1.000
    C173     C        0.33780    0.73987    0.66910    1.000
    H149     H        0.35080    0.72570    0.63430    1.000
    H150     H        0.32120    0.72560    0.69410    1.000
    C174     C        0.36048    0.75290    0.72860    1.000
    H151     H        0.37610    0.76840    0.70550    1.000
    H152     H        0.37270    0.73460    0.75170    1.000
    H153     H        0.34760    0.76430    0.76780    1.000
    Mn14     Mn       0.28728    0.70902    0.50253    1.000
    O40      O        0.32891    0.69998    0.46261    1.000
    O41      O        0.31707    0.63483    0.64966    1.000
    O42      O        0.24500    0.71183    0.55337    1.000
    N35      N        0.29265    0.67408    0.57713    1.000
    N36      N        0.26442    0.66891    0.62260    1.000
    N37      N        0.26171    0.67570    0.41580    1.000
    C175     C        0.35100    0.67744    0.48240    1.000
    C176     C        0.37974    0.67526    0.43800    1.000
    H154     H        0.38250    0.68950    0.39570    1.000
    C177     C        0.40365    0.65281    0.45530    1.000
    H155     H        0.42300    0.65180    0.42480    1.000
    C178     C        0.40045    0.63149    0.51600    1.000
    H156     H        0.41740    0.61600    0.52730    1.000
    C179     C        0.37260    0.63292    0.55990    1.000
    H157     H        0.37030    0.61810    0.60140    1.000
    C180     C        0.34744    0.65564    0.54510    1.000
    C181     C        0.31791    0.65472    0.59380    1.000
    C182     C        0.24112    0.68940    0.60490    1.000
    C183     C        0.20792    0.68636    0.64300    1.000
    H158     H        0.20950    0.66930    0.68310    1.000
    H159     H        0.20270    0.70760    0.66810    1.000
    C184     C        0.18170    0.67820    0.59420    1.000
    H160     H        0.16770    0.69760    0.58640    1.000
    H161     H        0.16860    0.66040    0.61700    1.000
    H162     H        0.19050    0.67080    0.54530    1.000
    C185     C        0.23060    0.68670    0.39220    1.000
    H163     H        0.22300    0.70810    0.40630    1.000
    C186     C        0.21020    0.66560    0.34670    1.000
    H164     H        0.18830    0.67180    0.33290    1.000
    C187     C        0.22430    0.63481    0.32310    1.000
    C188     C        0.24540    0.62529    0.36430    1.000
    H165     H        0.24980    0.60230    0.36690    1.000
    C189     C        0.26380    0.64666    0.40900    1.000
    H166     H        0.28060    0.63650    0.43850    1.000
    C190     C        0.20550    0.61140    0.26970    1.000
    H167     H        0.22120    0.59480    0.24990    1.000
    H168     H        0.18870    0.59940    0.29980    1.000
    Mn15     Mn       0.22079    0.86301    0.77836    1.000
    O43      O        0.24132    0.90088    0.81457    1.000
    O44      O        0.30247    0.86526    0.63603    1.000
    O45      O        0.20560    0.82260    0.73114    1.000
    N38      N        0.25639    0.85602    0.70623    1.000
    N39      N        0.25392    0.82594    0.66500    1.000
    N40      N        0.14172    0.56004    0.05630    1.000
    C191     C        0.26612    0.91795    0.78420    1.000
    C192     C        0.27240    0.94928    0.81330    1.000
    H169     H        0.25890    0.95750    0.85320    1.000
    C193     C        0.29741    0.96859    0.78630    1.000
    H170     H        0.30130    0.98950    0.80870    1.000
    C194     C        0.31705    0.95828    0.72720    1.000
    H171     H        0.33390    0.97220    0.70750    1.000
    C195     C        0.31177    0.92718    0.69720    1.000
    H172     H        0.32580    0.91950    0.65770    1.000
    C196     C        0.28647    0.90680    0.72330    1.000
    C197     C        0.28193    0.87426    0.68690    1.000
    C198     C        0.22658    0.81107    0.68240    1.000
    C199     C        0.21832    0.77923    0.64460    1.000
    H173     H        0.23800    0.77000    0.61900    1.000
    H174     H        0.21040    0.76300    0.68240    1.000
    C200     C        0.16664    0.57898    0.03530    1.000
    H175     H        0.17340    0.57830    0.98360    1.000
    C201     C        0.18314    0.59944    0.08350    1.000
    H176     H        0.20110    0.61230    0.06560    1.000
    C202     C        0.17371    0.60129    0.15790    1.000
    C203     C        0.14847    0.58132    0.18090    1.000
    H177     H        0.14150    0.58160    0.23240    1.000
    C204     C        0.13306    0.56084    0.12990    1.000
    H178     H        0.11580    0.54690    0.14720    1.000
    C205     C        0.19080    0.62550    0.21180    1.000
    H179     H        0.20730    0.63830    0.18280    1.000
    H180     H        0.17410    0.64120    0.23140    1.000
    Mn16     Mn       0.79482    0.32439    0.07838    1.000
    O46      O        0.76825    0.34564    0.00620    1.000
    O47      O        0.77503    0.24600    0.93383    1.000
    O48      O        0.82031    0.29562    0.14455    1.000
    N41      N        0.78848    0.28268    0.02646    1.000
    N42      N        0.80443    0.25535    0.06224    1.000
    C206     C        0.75290    0.33417    0.94910    1.000
    C207     C        0.73279    0.35535    0.90800    1.000
    H181     H        0.72930    0.37700    0.92690    1.000
    C208     C        0.71800    0.34670    0.84270    1.000
    H182     H        0.70350    0.36180    0.81850    1.000
    C209     C        0.72360    0.31480    0.80830    1.000
    H183     H        0.71600    0.30960    0.75870    1.000
    C210     C        0.74140    0.29173    0.85380    1.000
    H184     H        0.74300    0.26950    0.83750    1.000
    C211     C        0.75596    0.30099    0.92050    1.000
    C212     C        0.77358    0.27545    0.96200    1.000
    C213     C        0.82002    0.26476    0.12290    1.000
    C214     C        0.83780    0.23987    0.16910    1.000
    H185     H        0.85080    0.22570    0.13430    1.000
    H186     H        0.82120    0.22560    0.19410    1.000
    C215     C        0.86048    0.25290    0.22860    1.000
    H187     H        0.87610    0.26840    0.20550    1.000
    H188     H        0.87270    0.23460    0.25170    1.000
    H189     H        0.84760    0.26430    0.26780    1.000
    Mn17     Mn       0.78728    0.20902    0.00253    1.000
    O49      O        0.82891    0.19998    0.96261    1.000
    O50      O        0.81707    0.13483    0.14966    1.000
    O51      O        0.74500    0.21183    0.05337    1.000
    N43      N        0.79265    0.17408    0.07713    1.000
    N44      N        0.76442    0.16891    0.12260    1.000
    N45      N        0.76171    0.17570    0.91580    1.000
    C216     C        0.85100    0.17744    0.98240    1.000
    C217     C        0.87974    0.17526    0.93800    1.000
    H190     H        0.88250    0.18950    0.89570    1.000
    C218     C        0.90365    0.15281    0.95530    1.000
    H191     H        0.92300    0.15180    0.92480    1.000
    C219     C        0.90045    0.13149    0.01600    1.000
    H192     H        0.91740    0.11600    0.02730    1.000
    C220     C        0.87260    0.13292    0.05990    1.000
    H193     H        0.87030    0.11810    0.10140    1.000
    C221     C        0.84744    0.15564    0.04510    1.000
    C222     C        0.81791    0.15472    0.09380    1.000
    C223     C        0.74112    0.18940    0.10490    1.000
    C224     C        0.70792    0.18636    0.14300    1.000
    H194     H        0.70950    0.16930    0.18310    1.000
    H195     H        0.70270    0.20760    0.16810    1.000
    C225     C        0.68170    0.17820    0.09420    1.000
    H196     H        0.66770    0.19760    0.08640    1.000
    H197     H        0.66860    0.16040    0.11700    1.000
    H198     H        0.69050    0.17080    0.04530    1.000
    C226     C        0.73060    0.18670    0.89220    1.000
    H199     H        0.72300    0.20810    0.90630    1.000
    C227     C        0.71020    0.16560    0.84670    1.000
    H200     H        0.68830    0.17180    0.83290    1.000
    C228     C        0.72430    0.13481    0.82310    1.000
    C229     C        0.74540    0.12529    0.86430    1.000
    H201     H        0.74980    0.10230    0.86690    1.000
    C230     C        0.76380    0.14666    0.90900    1.000
    H202     H        0.78060    0.13650    0.93850    1.000
    C231     C        0.70550    0.11140    0.76970    1.000
    H203     H        0.72120    0.09480    0.74990    1.000
    H204     H        0.68870    0.09940    0.79980    1.000
    Mn18     Mn       0.72079    0.36301    0.27836    1.000
    O52      O        0.74132    0.40088    0.31457    1.000
    O53      O        0.80247    0.36526    0.13603    1.000
    O54      O        0.70560    0.32260    0.23114    1.000
    N46      N        0.75639    0.35602    0.20623    1.000
    N47      N        0.75392    0.32594    0.16500    1.000
    N48      N        0.64172    0.06004    0.55630    1.000
    C232     C        0.76612    0.41795    0.28420    1.000
    C233     C        0.77240    0.44928    0.31330    1.000
    H205     H        0.75890    0.45750    0.35320    1.000
    C234     C        0.79741    0.46859    0.28630    1.000
    H206     H        0.80130    0.48950    0.30870    1.000
    C235     C        0.81705    0.45828    0.22720    1.000
    H207     H        0.83390    0.47220    0.20750    1.000
    C236     C        0.81177    0.42718    0.19720    1.000
    H208     H        0.82580    0.41950    0.15770    1.000
    C237     C        0.78647    0.40680    0.22330    1.000
    C238     C        0.78193    0.37426    0.18690    1.000
    C239     C        0.72658    0.31107    0.18240    1.000
    C240     C        0.71832    0.27923    0.14460    1.000
    H209     H        0.73800    0.27000    0.11900    1.000
    H210     H        0.71040    0.26300    0.18240    1.000
    C241     C        0.66664    0.07898    0.53530    1.000
    H211     H        0.67340    0.07830    0.48360    1.000
    C242     C        0.68314    0.09944    0.58350    1.000
    H212     H        0.70110    0.11230    0.56560    1.000
    C243     C        0.67371    0.10129    0.65790    1.000
    C244     C        0.64847    0.08132    0.68090    1.000
    H213     H        0.64150    0.08160    0.73240    1.000
    C245     C        0.63306    0.06084    0.62990    1.000
    H214     H        0.61580    0.04690    0.64720    1.000
    C246     C        0.69080    0.12550    0.71180    1.000
    H215     H        0.70730    0.13830    0.68280    1.000
    H216     H        0.67410    0.14120    0.73140    1.000
    Mn19     Mn       0.20518    0.17561    0.07838    1.000
    O55      O        0.23175    0.15436    0.00620    1.000
    O56      O        0.22497    0.25400    0.93383    1.000
    O57      O        0.17969    0.20438    0.14455    1.000
    N49      N        0.21152    0.21732    0.02646    1.000
    N50      N        0.19557    0.24465    0.06224    1.000
    C247     C        0.24710    0.16583    0.94910    1.000
    C248     C        0.26721    0.14465    0.90800    1.000
    H217     H        0.27070    0.12300    0.92690    1.000
    C249     C        0.28200    0.15330    0.84270    1.000
    H218     H        0.29650    0.13820    0.81850    1.000
    C250     C        0.27640    0.18520    0.80830    1.000
    H219     H        0.28400    0.19040    0.75870    1.000
    C251     C        0.25860    0.20827    0.85380    1.000
    H220     H        0.25700    0.23050    0.83750    1.000
    C252     C        0.24404    0.19901    0.92050    1.000
    C253     C        0.22642    0.22455    0.96200    1.000
    C254     C        0.17998    0.23524    0.12290    1.000
    C255     C        0.16220    0.26013    0.16910    1.000
    H221     H        0.14920    0.27430    0.13430    1.000
    H222     H        0.17880    0.27440    0.19410    1.000
    C256     C        0.13952    0.24710    0.22860    1.000
    H223     H        0.12390    0.23160    0.20550    1.000
    H224     H        0.12730    0.26540    0.25170    1.000
    H225     H        0.15240    0.23570    0.26780    1.000
    Mn20     Mn       0.21272    0.29098    0.00253    1.000
    O58      O        0.17109    0.30002    0.96261    1.000
    O59      O        0.18293    0.36517    0.14966    1.000
    O60      O        0.25500    0.28817    0.05337    1.000
    N51      N        0.20735    0.32592    0.07713    1.000
    N52      N        0.23558    0.33109    0.12260    1.000
    N53      N        0.23829    0.32430    0.91580    1.000
    C257     C        0.14900    0.32256    0.98240    1.000
    C258     C        0.12026    0.32474    0.93800    1.000
    H226     H        0.11750    0.31050    0.89570    1.000
    C259     C        0.09635    0.34719    0.95530    1.000
    H227     H        0.07700    0.34820    0.92480    1.000
    C260     C        0.09955    0.36851    0.01600    1.000
    H228     H        0.08260    0.38400    0.02730    1.000
    C261     C        0.12740    0.36708    0.05990    1.000
    H229     H        0.12970    0.38190    0.10140    1.000
    C262     C        0.15256    0.34436    0.04510    1.000
    C263     C        0.18209    0.34528    0.09380    1.000
    C264     C        0.25888    0.31060    0.10490    1.000
    C265     C        0.29208    0.31364    0.14300    1.000
    H230     H        0.29050    0.33070    0.18310    1.000
    H231     H        0.29730    0.29240    0.16810    1.000
    C266     C        0.31830    0.32180    0.09420    1.000
    H232     H        0.33230    0.30240    0.08640    1.000
    H233     H        0.33140    0.33960    0.11700    1.000
    H234     H        0.30950    0.32920    0.04530    1.000
    C267     C        0.26940    0.31330    0.89220    1.000
    H235     H        0.27700    0.29190    0.90630    1.000
    C268     C        0.28980    0.33440    0.84670    1.000
    H236     H        0.31170    0.32820    0.83290    1.000
    C269     C        0.27570    0.36519    0.82310    1.000
    C270     C        0.25460    0.37471    0.86430    1.000
    H237     H        0.25020    0.39770    0.86690    1.000
    C271     C        0.23620    0.35334    0.90900    1.000
    H238     H        0.21940    0.36350    0.93850    1.000
    C272     C        0.29450    0.38860    0.76970    1.000
    H239     H        0.27880    0.40520    0.74990    1.000
    H240     H        0.31130    0.40060    0.79980    1.000
    Mn21     Mn       0.27921    0.13699    0.27836    1.000
    O61      O        0.25868    0.09912    0.31457    1.000
    O62      O        0.19753    0.13474    0.13603    1.000
    O63      O        0.29440    0.17740    0.23114    1.000
    N54      N        0.24361    0.14398    0.20623    1.000
    N55      N        0.24608    0.17406    0.16500    1.000
    N56      N        0.35828    0.43996    0.55630    1.000
    C273     C        0.23388    0.08205    0.28420    1.000
    C274     C        0.22760    0.05072    0.31330    1.000
    H241     H        0.24110    0.04250    0.35320    1.000
    C275     C        0.20259    0.03141    0.28630    1.000
    H242     H        0.19870    0.01050    0.30870    1.000
    C276     C        0.18295    0.04172    0.22720    1.000
    H243     H        0.16610    0.02780    0.20750    1.000
    C277     C        0.18823    0.07282    0.19720    1.000
    H244     H        0.17420    0.08050    0.15770    1.000
    C278     C        0.21353    0.09320    0.22330    1.000
    C279     C        0.21807    0.12574    0.18690    1.000
    C280     C        0.27342    0.18893    0.18240    1.000
    C281     C        0.28168    0.22077    0.14460    1.000
    H245     H        0.26200    0.23000    0.11900    1.000
    H246     H        0.28960    0.23700    0.18240    1.000
    C282     C        0.33336    0.42102    0.53530    1.000
    H247     H        0.32660    0.42170    0.48360    1.000
    C283     C        0.31686    0.40056    0.58350    1.000
    H248     H        0.29890    0.38770    0.56560    1.000
    C284     C        0.32629    0.39871    0.65790    1.000
    C285     C        0.35153    0.41868    0.68090    1.000
    H249     H        0.35850    0.41840    0.73240    1.000
    C286     C        0.36694    0.43916    0.62990    1.000
    H250     H        0.38420    0.45310    0.64720    1.000
    C287     C        0.30920    0.37450    0.71180    1.000
    H251     H        0.29270    0.36170    0.68280    1.000
    H252     H        0.32590    0.35880    0.73140    1.000
    Mn22     Mn       0.70518    0.67561    0.57838    1.000
    O64      O        0.73175    0.65436    0.50620    1.000
    O65      O        0.72497    0.75400    0.43383    1.000
    O66      O        0.67969    0.70438    0.64455    1.000
    N57      N        0.71152    0.71732    0.52646    1.000
    N58      N        0.69557    0.74465    0.56224    1.000
    C288     C        0.74710    0.66583    0.44910    1.000
    C289     C        0.76721    0.64465    0.40800    1.000
    H253     H        0.77070    0.62300    0.42690    1.000
    C290     C        0.78200    0.65330    0.34270    1.000
    H254     H        0.79650    0.63820    0.31850    1.000
    C291     C        0.77640    0.68520    0.30830    1.000
    H255     H        0.78400    0.69040    0.25870    1.000
    C292     C        0.75860    0.70827    0.35380    1.000
    H256     H        0.75700    0.73050    0.33750    1.000
    C293     C        0.74404    0.69901    0.42050    1.000
    C294     C        0.72642    0.72455    0.46200    1.000
    C295     C        0.67998    0.73524    0.62290    1.000
    C296     C        0.66220    0.76013    0.66910    1.000
    H257     H        0.64920    0.77430    0.63430    1.000
    H258     H        0.67880    0.77440    0.69410    1.000
    C297     C        0.63952    0.74710    0.72860    1.000
    H259     H        0.62390    0.73160    0.70550    1.000
    H260     H        0.62730    0.76540    0.75170    1.000
    H261     H        0.65240    0.73570    0.76780    1.000
    Mn23     Mn       0.71272    0.79098    0.50253    1.000
    O67      O        0.67109    0.80002    0.46261    1.000
    O68      O        0.68293    0.86517    0.64966    1.000
    O69      O        0.75500    0.78817    0.55337    1.000
    N59      N        0.70735    0.82592    0.57713    1.000
    N60      N        0.73558    0.83109    0.62260    1.000
    N61      N        0.73829    0.82430    0.41580    1.000
    C298     C        0.64900    0.82256    0.48240    1.000
    C299     C        0.62026    0.82474    0.43800    1.000
    H262     H        0.61750    0.81050    0.39570    1.000
    C300     C        0.59635    0.84719    0.45530    1.000
    H263     H        0.57700    0.84820    0.42480    1.000
    C301     C        0.59955    0.86851    0.51600    1.000
    H264     H        0.58260    0.88400    0.52730    1.000
    C302     C        0.62740    0.86708    0.55990    1.000
    H265     H        0.62970    0.88190    0.60140    1.000
    C303     C        0.65256    0.84436    0.54510    1.000
    C304     C        0.68209    0.84528    0.59380    1.000
    C305     C        0.75888    0.81060    0.60490    1.000
    C306     C        0.79208    0.81364    0.64300    1.000
    H266     H        0.79050    0.83070    0.68310    1.000
    H267     H        0.79730    0.79240    0.66810    1.000
    C307     C        0.81830    0.82180    0.59420    1.000
    H268     H        0.83230    0.80240    0.58640    1.000
    H269     H        0.83140    0.83960    0.61700    1.000
    H270     H        0.80950    0.82920    0.54530    1.000
    C308     C        0.76940    0.81330    0.39220    1.000
    H271     H        0.77700    0.79190    0.40630    1.000
    C309     C        0.78980    0.83440    0.34670    1.000
    H272     H        0.81170    0.82820    0.33290    1.000
    C310     C        0.77570    0.86519    0.32310    1.000
    C311     C        0.75460    0.87471    0.36430    1.000
    H273     H        0.75020    0.89770    0.36690    1.000
    C312     C        0.73620    0.85334    0.40900    1.000
    H274     H        0.71940    0.86350    0.43850    1.000
    C313     C        0.79450    0.88860    0.26970    1.000
    H275     H        0.77880    0.90520    0.24990    1.000
    H276     H        0.81130    0.90060    0.29980    1.000
    Mn24     Mn       0.77921    0.63699    0.77836    1.000
    O70      O        0.75868    0.59912    0.81457    1.000
    O71      O        0.69753    0.63474    0.63603    1.000
    O72      O        0.79440    0.67740    0.73114    1.000
    N62      N        0.74361    0.64398    0.70623    1.000
    N63      N        0.74608    0.67406    0.66500    1.000
    N64      N        0.85828    0.93996    0.05630    1.000
    C314     C        0.73388    0.58205    0.78420    1.000
    C315     C        0.72760    0.55072    0.81330    1.000
    H277     H        0.74110    0.54250    0.85320    1.000
    C316     C        0.70259    0.53141    0.78630    1.000
    H278     H        0.69870    0.51050    0.80870    1.000
    C317     C        0.68295    0.54172    0.72720    1.000
    H279     H        0.66610    0.52780    0.70750    1.000
    C318     C        0.68823    0.57282    0.69720    1.000
    H280     H        0.67420    0.58050    0.65770    1.000
    C319     C        0.71353    0.59320    0.72330    1.000
    C320     C        0.71807    0.62574    0.68690    1.000
    C321     C        0.77342    0.68893    0.68240    1.000
    C322     C        0.78168    0.72077    0.64460    1.000
    H281     H        0.76200    0.73000    0.61900    1.000
    H282     H        0.78960    0.73700    0.68240    1.000
    C323     C        0.83336    0.92102    0.03530    1.000
    H283     H        0.82660    0.92170    0.98360    1.000
    C324     C        0.81686    0.90056    0.08350    1.000
    H284     H        0.79890    0.88770    0.06560    1.000
    C325     C        0.82629    0.89871    0.15790    1.000
    C326     C        0.85153    0.91868    0.18090    1.000
    H285     H        0.85850    0.91840    0.23240    1.000
    C327     C        0.86694    0.93916    0.12990    1.000
    H286     H        0.88420    0.95310    0.14720    1.000
    C328     C        0.80920    0.87450    0.21180    1.000
    H287     H        0.79270    0.86170    0.18280    1.000
    H288     H        0.82590    0.85880    0.23140    1.000
    Mn25     Mn       0.42561    0.54482    0.67162    1.000
    O73      O        0.40436    0.51825    0.74380    1.000
    O74      O        0.50400    0.52503    0.81617    1.000
    O75      O        0.45438    0.57031    0.60545    1.000
    N65      N        0.46732    0.53848    0.72354    1.000
    N66      N        0.49465    0.55443    0.68776    1.000
    C329     C        0.41583    0.50290    0.80090    1.000
    C330     C        0.39465    0.48279    0.84200    1.000
    H289     H        0.37300    0.47930    0.82310    1.000
    C331     C        0.40330    0.46800    0.90730    1.000
    H290     H        0.38820    0.45350    0.93150    1.000
    C332     C        0.43520    0.47360    0.94170    1.000
    H291     H        0.44040    0.46600    0.99130    1.000
    C333     C        0.45827    0.49140    0.89620    1.000
    H292     H        0.48050    0.49300    0.91250    1.000
    C334     C        0.44901    0.50596    0.82950    1.000
    C335     C        0.47455    0.52358    0.78800    1.000
    C336     C        0.48524    0.57002    0.62710    1.000
    C337     C        0.51013    0.58780    0.58090    1.000
    H293     H        0.52430    0.60080    0.61570    1.000
    H294     H        0.52440    0.57120    0.55590    1.000
    C338     C        0.49710    0.61048    0.52140    1.000
    H295     H        0.48160    0.62610    0.54450    1.000
    H296     H        0.51540    0.62270    0.49830    1.000
    H297     H        0.48570    0.59760    0.48220    1.000
    Mn26     Mn       0.54098    0.53728    0.74747    1.000
    O76      O        0.55002    0.57891    0.78739    1.000
    O77      O        0.61517    0.56707    0.60034    1.000
    O78      O        0.53817    0.49500    0.69663    1.000
    N67      N        0.57592    0.54265    0.67287    1.000
    N68      N        0.58109    0.51442    0.62740    1.000
    N69      N        0.57430    0.51171    0.83420    1.000
    C339     C        0.57256    0.60100    0.76760    1.000
    C340     C        0.57474    0.62974    0.81200    1.000
    H298     H        0.56050    0.63250    0.85430    1.000
    C341     C        0.59719    0.65365    0.79470    1.000
    H299     H        0.59820    0.67300    0.82520    1.000
    C342     C        0.61851    0.65045    0.73400    1.000
    H300     H        0.63400    0.66740    0.72270    1.000
    C343     C        0.61708    0.62260    0.69010    1.000
    H301     H        0.63190    0.62030    0.64860    1.000
    C344     C        0.59436    0.59744    0.70490    1.000
    C345     C        0.59528    0.56791    0.65620    1.000
    C346     C        0.56060    0.49112    0.64510    1.000
    C347     C        0.56364    0.45792    0.60700    1.000
    H302     H        0.58070    0.45950    0.56690    1.000
    H303     H        0.54240    0.45270    0.58190    1.000
    C348     C        0.57180    0.43170    0.65580    1.000
    H304     H        0.55240    0.41770    0.66360    1.000
    H305     H        0.58960    0.41860    0.63300    1.000
    H306     H        0.57920    0.44050    0.70470    1.000
    C349     C        0.56330    0.48060    0.85780    1.000
    H307     H        0.54190    0.47300    0.84370    1.000
    C350     C        0.58440    0.46020    0.90330    1.000
    H308     H        0.57820    0.43830    0.91710    1.000
    C351     C        0.61519    0.47430    0.92690    1.000
    C352     C        0.62471    0.49540    0.88570    1.000
    H309     H        0.64770    0.49980    0.88310    1.000
    C353     C        0.60334    0.51380    0.84100    1.000
    H310     H        0.61350    0.53060    0.81150    1.000
    C354     C        0.63860    0.45550    0.98030    1.000
    H311     H        0.65520    0.47120    0.00010    1.000
    H312     H        0.65060    0.43870    0.95020    1.000
    Mn27     Mn       0.38699    0.47079    0.47164    1.000
    O79      O        0.34912    0.49132    0.43543    1.000
    O80      O        0.38474    0.55247    0.61397    1.000
    O81      O        0.42740    0.45560    0.51886    1.000
    N70      N        0.39398    0.50639    0.54377    1.000
    N71      N        0.42406    0.50392    0.58500    1.000
    N72      N        0.68996    0.39172    0.19370    1.000
    C355     C        0.33205    0.51612    0.46580    1.000
    C356     C        0.30072    0.52240    0.43670    1.000
    H313     H        0.29250    0.50890    0.39680    1.000
    C357     C        0.28141    0.54741    0.46370    1.000
    H314     H        0.26050    0.55130    0.44130    1.000
    C358     C        0.29172    0.56705    0.52280    1.000
    H315     H        0.27780    0.58390    0.54250    1.000
    C359     C        0.32282    0.56177    0.55280    1.000
    H316     H        0.33050    0.57580    0.59230    1.000
    C360     C        0.34320    0.53647    0.52670    1.000
    C361     C        0.37574    0.53193    0.56310    1.000
    C362     C        0.43893    0.47658    0.56760    1.000
    C363     C        0.47077    0.46832    0.60540    1.000
    H317     H        0.48000    0.48800    0.63100    1.000
    H318     H        0.48700    0.46040    0.56760    1.000
    C364     C        0.67102    0.41664    0.21470    1.000
    H319     H        0.67170    0.42340    0.26640    1.000
    C365     C        0.65056    0.43314    0.16650    1.000
    H320     H        0.63770    0.45110    0.18440    1.000
    C366     C        0.64871    0.42371    0.09210    1.000
    C367     C        0.66868    0.39847    0.06910    1.000
    H321     H        0.66840    0.39150    0.01760    1.000
    C368     C        0.68916    0.38306    0.12010    1.000
    H322     H        0.70310    0.36580    0.10280    1.000
    C369     C        0.62450    0.44080    0.03820    1.000
    H323     H        0.61170    0.45730    0.06720    1.000
    H324     H        0.60880    0.42410    0.01860    1.000
    Mn28     Mn       0.92561    0.04482    0.17162    1.000
    O82      O        0.90436    0.01825    0.24380    1.000
    O83      O        0.00400    0.02503    0.31617    1.000
    O84      O        0.95438    0.07031    0.10545    1.000
    N73      N        0.96732    0.03848    0.22354    1.000
    N74      N        0.99465    0.05443    0.18776    1.000
    C370     C        0.91583    0.00290    0.30090    1.000
    C371     C        0.89465    0.98279    0.34200    1.000
    H325     H        0.87300    0.97930    0.32310    1.000
    C372     C        0.90330    0.96800    0.40730    1.000
    H326     H        0.88820    0.95350    0.43150    1.000
    C373     C        0.93520    0.97360    0.44170    1.000
    H327     H        0.94040    0.96600    0.49130    1.000
    C374     C        0.95827    0.99140    0.39620    1.000
    H328     H        0.98050    0.99300    0.41250    1.000
    C375     C        0.94901    0.00596    0.32950    1.000
    C376     C        0.97455    0.02358    0.28800    1.000
    C377     C        0.98524    0.07002    0.12710    1.000
    C378     C        0.01013    0.08780    0.08090    1.000
    H329     H        0.02430    0.10080    0.11570    1.000
    H330     H        0.02440    0.07120    0.05590    1.000
    C379     C        0.99710    0.11048    0.02140    1.000
    H331     H        0.98160    0.12610    0.04450    1.000
    H332     H        0.01540    0.12270    0.99830    1.000
    H333     H        0.98570    0.09760    0.98220    1.000
    Mn29     Mn       0.04098    0.03728    0.24747    1.000
    O85      O        0.05002    0.07891    0.28739    1.000
    O86      O        0.11517    0.06707    0.10034    1.000
    O87      O        0.03817    0.99500    0.19663    1.000
    N75      N        0.07592    0.04265    0.17287    1.000
    N76      N        0.08109    0.01442    0.12740    1.000
    N77      N        0.07430    0.01171    0.33420    1.000
    C380     C        0.07256    0.10100    0.26760    1.000
    C381     C        0.07474    0.12974    0.31200    1.000
    H334     H        0.06050    0.13250    0.35430    1.000
    C382     C        0.09719    0.15365    0.29470    1.000
    H335     H        0.09820    0.17300    0.32520    1.000
    C383     C        0.11851    0.15045    0.23400    1.000
    H336     H        0.13400    0.16740    0.22270    1.000
    C384     C        0.11708    0.12260    0.19010    1.000
    H337     H        0.13190    0.12030    0.14860    1.000
    C385     C        0.09436    0.09744    0.20490    1.000
    C386     C        0.09528    0.06791    0.15620    1.000
    C387     C        0.06060    0.99112    0.14510    1.000
    C388     C        0.06364    0.95792    0.10700    1.000
    H338     H        0.08070    0.95950    0.06690    1.000
    H339     H        0.04240    0.95270    0.08190    1.000
    C389     C        0.07180    0.93170    0.15580    1.000
    H340     H        0.05240    0.91770    0.16360    1.000
    H341     H        0.08960    0.91860    0.13300    1.000
    H342     H        0.07920    0.94050    0.20470    1.000
    C390     C        0.06330    0.98060    0.35780    1.000
    H343     H        0.04190    0.97300    0.34370    1.000
    C391     C        0.08440    0.96020    0.40330    1.000
    H344     H        0.07820    0.93830    0.41710    1.000
    C392     C        0.11519    0.97430    0.42690    1.000
    C393     C        0.12471    0.99540    0.38570    1.000
    H345     H        0.14770    0.99980    0.38310    1.000
    C394     C        0.10334    0.01380    0.34100    1.000
    H346     H        0.11350    0.03060    0.31150    1.000
    C395     C        0.13860    0.95550    0.48030    1.000
    H347     H        0.15520    0.97120    0.50010    1.000
    H348     H        0.15060    0.93870    0.45020    1.000
    Mn30     Mn       0.88699    0.97079    0.97164    1.000
    O88      O        0.84912    0.99132    0.93543    1.000
    O89      O        0.88474    0.05247    0.11397    1.000
    O90      O        0.92740    0.95560    0.01886    1.000
    N78      N        0.89398    0.00639    0.04377    1.000
    N79      N        0.92406    0.00392    0.08500    1.000
    N80      N        0.18996    0.89172    0.69370    1.000
    C396     C        0.83205    0.01612    0.96580    1.000
    C397     C        0.80072    0.02240    0.93670    1.000
    H349     H        0.79250    0.00890    0.89680    1.000
    C398     C        0.78141    0.04741    0.96370    1.000
    H350     H        0.76050    0.05130    0.94130    1.000
    C399     C        0.79172    0.06705    0.02280    1.000
    H351     H        0.77780    0.08390    0.04250    1.000
    C400     C        0.82282    0.06177    0.05280    1.000
    H352     H        0.83050    0.07580    0.09230    1.000
    C401     C        0.84320    0.03647    0.02670    1.000
    C402     C        0.87574    0.03193    0.06310    1.000
    C403     C        0.93893    0.97658    0.06760    1.000
    C404     C        0.97077    0.96832    0.10540    1.000
    H353     H        0.98000    0.98800    0.13100    1.000
    H354     H        0.98700    0.96040    0.06760    1.000
    C405     C        0.17102    0.91664    0.71470    1.000
    H355     H        0.17170    0.92340    0.76640    1.000
    C406     C        0.15056    0.93314    0.66650    1.000
    H356     H        0.13770    0.95110    0.68440    1.000
    C407     C        0.14871    0.92371    0.59210    1.000
    C408     C        0.16868    0.89847    0.56910    1.000
    H357     H        0.16840    0.89150    0.51760    1.000
    C409     C        0.18916    0.88306    0.62010    1.000
    H358     H        0.20310    0.86580    0.60280    1.000
    C410     C        0.12450    0.94080    0.53820    1.000
    H359     H        0.11170    0.95730    0.56720    1.000
    H360     H        0.10880    0.92410    0.51860    1.000
    Mn31     Mn       0.07439    0.45518    0.17162    1.000
    O91      O        0.09564    0.48175    0.24380    1.000
    O92      O        0.99600    0.47497    0.31617    1.000
    O93      O        0.04562    0.42969    0.10545    1.000
    N81      N        0.03268    0.46152    0.22354    1.000
    N82      N        0.00535    0.44557    0.18776    1.000
    C411     C        0.08417    0.49710    0.30090    1.000
    C412     C        0.10535    0.51721    0.34200    1.000
    H361     H        0.12700    0.52070    0.32310    1.000
    C413     C        0.09670    0.53200    0.40730    1.000
    H362     H        0.11180    0.54650    0.43150    1.000
    C414     C        0.06480    0.52640    0.44170    1.000
    H363     H        0.05960    0.53400    0.49130    1.000
    C415     C        0.04173    0.50860    0.39620    1.000
    H364     H        0.01950    0.50700    0.41250    1.000
    C416     C        0.05099    0.49404    0.32950    1.000
    C417     C        0.02545    0.47642    0.28800    1.000
    C418     C        0.01476    0.42998    0.12710    1.000
    C419     C        0.98987    0.41220    0.08090    1.000
    H365     H        0.97570    0.39920    0.11570    1.000
    H366     H        0.97560    0.42880    0.05590    1.000
    C420     C        0.00290    0.38952    0.02140    1.000
    H367     H        0.01840    0.37390    0.04450    1.000
    H368     H        0.98460    0.37730    0.99830    1.000
    H369     H        0.01430    0.40240    0.98220    1.000
    Mn32     Mn       0.95902    0.46272    0.24747    1.000
    O94      O        0.94998    0.42109    0.28739    1.000
    O95      O        0.88483    0.43293    0.10034    1.000
    O96      O        0.96183    0.50500    0.19663    1.000
    N83      N        0.92408    0.45735    0.17287    1.000
    N84      N        0.91891    0.48558    0.12740    1.000
    N85      N        0.92570    0.48829    0.33420    1.000
    C421     C        0.92744    0.39900    0.26760    1.000
    C422     C        0.92526    0.37026    0.31200    1.000
    H370     H        0.93950    0.36750    0.35430    1.000
    C423     C        0.90281    0.34635    0.29470    1.000
    H371     H        0.90180    0.32700    0.32520    1.000
    C424     C        0.88149    0.34955    0.23400    1.000
    H372     H        0.86600    0.33260    0.22270    1.000
    C425     C        0.88292    0.37740    0.19010    1.000
    H373     H        0.86810    0.37970    0.14860    1.000
    C426     C        0.90564    0.40256    0.20490    1.000
    C427     C        0.90472    0.43209    0.15620    1.000
    C428     C        0.93940    0.50888    0.14510    1.000
    C429     C        0.93636    0.54208    0.10700    1.000
    H374     H        0.91930    0.54050    0.06690    1.000
    H375     H        0.95760    0.54730    0.08190    1.000
    C430     C        0.92820    0.56830    0.15580    1.000
    H376     H        0.94760    0.58230    0.16360    1.000
    H377     H        0.91040    0.58140    0.13300    1.000
    H378     H        0.92080    0.55950    0.20470    1.000
    C431     C        0.93670    0.51940    0.35780    1.000
    H379     H        0.95810    0.52700    0.34370    1.000
    C432     C        0.91560    0.53980    0.40330    1.000
    H380     H        0.92180    0.56170    0.41710    1.000
    C433     C        0.88481    0.52570    0.42690    1.000
    C434     C        0.87529    0.50460    0.38570    1.000
    H381     H        0.85230    0.50020    0.38310    1.000
    C435     C        0.89666    0.48620    0.34100    1.000
    H382     H        0.88650    0.46940    0.31150    1.000
    C436     C        0.86140    0.54450    0.48030    1.000
    H383     H        0.84480    0.52880    0.50010    1.000
    H384     H        0.84940    0.56130    0.45020    1.000
    Mn33     Mn       0.11301    0.52921    0.97164    1.000
    O97      O        0.15088    0.50868    0.93543    1.000
    O98      O        0.11526    0.44753    0.11397    1.000
    O99      O        0.07260    0.54440    0.01886    1.000
    N86      N        0.10602    0.49361    0.04377    1.000
    N87      N        0.07594    0.49608    0.08500    1.000
    N88      N        0.81004    0.60828    0.69370    1.000
    C437     C        0.16795    0.48388    0.96580    1.000
    C438     C        0.19928    0.47760    0.93670    1.000
    H385     H        0.20750    0.49110    0.89680    1.000
    C439     C        0.21859    0.45259    0.96370    1.000
    H386     H        0.23950    0.44870    0.94130    1.000
    C440     C        0.20828    0.43295    0.02280    1.000
    H387     H        0.22220    0.41610    0.04250    1.000
    C441     C        0.17718    0.43823    0.05280    1.000
    H388     H        0.16950    0.42420    0.09230    1.000
    C442     C        0.15680    0.46353    0.02670    1.000
    C443     C        0.12426    0.46807    0.06310    1.000
    C444     C        0.06107    0.52342    0.06760    1.000
    C445     C        0.02923    0.53168    0.10540    1.000
    H389     H        0.02000    0.51200    0.13100    1.000
    H390     H        0.01300    0.53960    0.06760    1.000
    C446     C        0.82898    0.58336    0.71470    1.000
    H391     H        0.82830    0.57660    0.76640    1.000
    C447     C        0.84944    0.56686    0.66650    1.000
    H392     H        0.86230    0.54890    0.68440    1.000
    C448     C        0.85129    0.57629    0.59210    1.000
    C449     C        0.83132    0.60153    0.56910    1.000
    H393     H        0.83160    0.60850    0.51760    1.000
    C450     C        0.81084    0.61694    0.62010    1.000
    H394     H        0.79690    0.63420    0.60280    1.000
    C451     C        0.87550    0.55920    0.53820    1.000
    H395     H        0.88830    0.54270    0.56720    1.000
    H396     H        0.89120    0.57590    0.51860    1.000
    Mn34     Mn       0.57439    0.95518    0.67162    1.000
    O100     O        0.59564    0.98175    0.74380    1.000
    O101     O        0.49600    0.97497    0.81617    1.000
    O102     O        0.54562    0.92969    0.60545    1.000
    N89      N        0.53268    0.96152    0.72354    1.000
    N90      N        0.50535    0.94557    0.68776    1.000
    C452     C        0.58417    0.99710    0.80090    1.000
    C453     C        0.60535    0.01721    0.84200    1.000
    H397     H        0.62700    0.02070    0.82310    1.000
    C454     C        0.59670    0.03200    0.90730    1.000
    H398     H        0.61180    0.04650    0.93150    1.000
    C455     C        0.56480    0.02640    0.94170    1.000
    H399     H        0.55960    0.03400    0.99130    1.000
    C456     C        0.54173    0.00860    0.89620    1.000
    H400     H        0.51950    0.00700    0.91250    1.000
    C457     C        0.55099    0.99404    0.82950    1.000
    C458     C        0.52545    0.97642    0.78800    1.000
    C459     C        0.51476    0.92998    0.62710    1.000
    C460     C        0.48987    0.91220    0.58090    1.000
    H401     H        0.47570    0.89920    0.61570    1.000
    H402     H        0.47560    0.92880    0.55590    1.000
    C461     C        0.50290    0.88952    0.52140    1.000
    H403     H        0.51840    0.87390    0.54450    1.000
    H404     H        0.48460    0.87730    0.49830    1.000
    H405     H        0.51430    0.90240    0.48220    1.000
    Mn35     Mn       0.45902    0.96272    0.74747    1.000
    O103     O        0.44998    0.92109    0.78739    1.000
    O104     O        0.38483    0.93293    0.60034    1.000
    O105     O        0.46183    0.00500    0.69663    1.000
    N91      N        0.42408    0.95735    0.67287    1.000
    N92      N        0.41891    0.98558    0.62740    1.000
    N93      N        0.42570    0.98829    0.83420    1.000
    C462     C        0.42744    0.89900    0.76760    1.000
    C463     C        0.42526    0.87026    0.81200    1.000
    H406     H        0.43950    0.86750    0.85430    1.000
    C464     C        0.40281    0.84635    0.79470    1.000
    H407     H        0.40180    0.82700    0.82520    1.000
    C465     C        0.38149    0.84955    0.73400    1.000
    H408     H        0.36600    0.83260    0.72270    1.000
    C466     C        0.38292    0.87740    0.69010    1.000
    H409     H        0.36810    0.87970    0.64860    1.000
    C467     C        0.40564    0.90256    0.70490    1.000
    C468     C        0.40472    0.93209    0.65620    1.000
    C469     C        0.43940    0.00888    0.64510    1.000
    C470     C        0.43636    0.04208    0.60700    1.000
    H410     H        0.41930    0.04050    0.56690    1.000
    H411     H        0.45760    0.04730    0.58190    1.000
    C471     C        0.42820    0.06830    0.65580    1.000
    H412     H        0.44760    0.08230    0.66360    1.000
    H413     H        0.41040    0.08140    0.63300    1.000
    H414     H        0.42080    0.05950    0.70470    1.000
    C472     C        0.43670    0.01940    0.85780    1.000
    H415     H        0.45810    0.02700    0.84370    1.000
    C473     C        0.41560    0.03980    0.90330    1.000
    H416     H        0.42180    0.06170    0.91710    1.000
    C474     C        0.38481    0.02570    0.92690    1.000
    C475     C        0.37529    0.00460    0.88570    1.000
    H417     H        0.35230    0.00020    0.88310    1.000
    C476     C        0.39666    0.98620    0.84100    1.000
    H418     H        0.38650    0.96940    0.81150    1.000
    C477     C        0.36140    0.04450    0.98030    1.000
    H419     H        0.34480    0.02880    0.00010    1.000
    H420     H        0.34940    0.06130    0.95020    1.000
    Mn36     Mn       0.61301    0.02921    0.47164    1.000
    O106     O        0.65088    0.00868    0.43543    1.000
    O107     O        0.61526    0.94753    0.61397    1.000
    O108     O        0.57260    0.04440    0.51886    1.000
    N94      N        0.60602    0.99361    0.54377    1.000
    N95      N        0.57594    0.99608    0.58500    1.000
    N96      N        0.31004    0.10828    0.19370    1.000
    C478     C        0.66795    0.98388    0.46580    1.000
    C479     C        0.69928    0.97760    0.43670    1.000
    H421     H        0.70750    0.99110    0.39680    1.000
    C480     C        0.71859    0.95259    0.46370    1.000
    H422     H        0.73950    0.94870    0.44130    1.000
    C481     C        0.70828    0.93295    0.52280    1.000
    H423     H        0.72220    0.91610    0.54250    1.000
    C482     C        0.67718    0.93823    0.55280    1.000
    H424     H        0.66950    0.92420    0.59230    1.000
    C483     C        0.65680    0.96353    0.52670    1.000
    C484     C        0.62426    0.96807    0.56310    1.000
    C485     C        0.56107    0.02342    0.56760    1.000
    C486     C        0.52923    0.03168    0.60540    1.000
    H425     H        0.52000    0.01200    0.63100    1.000
    H426     H        0.51300    0.03960    0.56760    1.000
    C487     C        0.32898    0.08336    0.21470    1.000
    H427     H        0.32830    0.07660    0.26640    1.000
    C488     C        0.34944    0.06686    0.16650    1.000
    H428     H        0.36230    0.04890    0.18440    1.000
    C489     C        0.35129    0.07629    0.09210    1.000
    C490     C        0.33132    0.10153    0.06910    1.000
    H429     H        0.33160    0.10850    0.01760    1.000
    C491     C        0.31084    0.11694    0.12010    1.000
    H430     H        0.29690    0.13420    0.10280    1.000
    C492     C        0.37550    0.05920    0.03820    1.000
    H431     H        0.38830    0.04270    0.06720    1.000
    H432     H        0.39120    0.07590    0.01860    1.000
    Mn37     Mn       0.70518    0.17561    0.42162    1.000
    O109     O        0.73175    0.15436    0.49380    1.000
    O110     O        0.72497    0.25400    0.56617    1.000
    O111     O        0.67969    0.20438    0.35545    1.000
    N97      N        0.71152    0.21732    0.47354    1.000
    N98      N        0.69557    0.24465    0.43776    1.000
    C493     C        0.74710    0.16583    0.55090    1.000
    C494     C        0.76721    0.14465    0.59200    1.000
    H433     H        0.77070    0.12300    0.57310    1.000
    C495     C        0.78200    0.15330    0.65730    1.000
    H434     H        0.79650    0.13820    0.68150    1.000
    C496     C        0.77640    0.18520    0.69170    1.000
    H435     H        0.78400    0.19040    0.74130    1.000
    C497     C        0.75860    0.20827    0.64620    1.000
    H436     H        0.75700    0.23050    0.66250    1.000
    C498     C        0.74404    0.19901    0.57950    1.000
    C499     C        0.72642    0.22455    0.53800    1.000
    C500     C        0.67998    0.23524    0.37710    1.000
    C501     C        0.66220    0.26013    0.33090    1.000
    H437     H        0.64920    0.27430    0.36570    1.000
    H438     H        0.67880    0.27440    0.30590    1.000
    C502     C        0.63952    0.24710    0.27140    1.000
    H439     H        0.62390    0.23160    0.29450    1.000
    H440     H        0.62730    0.26540    0.24830    1.000
    H441     H        0.65240    0.23570    0.23220    1.000
    Mn38     Mn       0.71272    0.29098    0.49747    1.000
    O112     O        0.67109    0.30002    0.53739    1.000
    O113     O        0.68293    0.36517    0.35034    1.000
    O114     O        0.75500    0.28817    0.44663    1.000
    N99      N        0.70735    0.32592    0.42287    1.000
    N100     N        0.73558    0.33109    0.37740    1.000
    N101     N        0.73829    0.32430    0.58420    1.000
    C503     C        0.64900    0.32256    0.51760    1.000
    C504     C        0.62026    0.32474    0.56200    1.000
    H442     H        0.61750    0.31050    0.60430    1.000
    C505     C        0.59635    0.34719    0.54470    1.000
    H443     H        0.57700    0.34820    0.57520    1.000
    C506     C        0.59955    0.36851    0.48400    1.000
    H444     H        0.58260    0.38400    0.47270    1.000
    C507     C        0.62740    0.36708    0.44010    1.000
    H445     H        0.62970    0.38190    0.39860    1.000
    C508     C        0.65256    0.34436    0.45490    1.000
    C509     C        0.68209    0.34528    0.40620    1.000
    C510     C        0.75888    0.31060    0.39510    1.000
    C511     C        0.79208    0.31364    0.35700    1.000
    H446     H        0.79050    0.33070    0.31690    1.000
    H447     H        0.79730    0.29240    0.33190    1.000
    C512     C        0.81830    0.32180    0.40580    1.000
    H448     H        0.83230    0.30240    0.41360    1.000
    H449     H        0.83140    0.33960    0.38300    1.000
    H450     H        0.80950    0.32920    0.45470    1.000
    C513     C        0.76940    0.31330    0.60780    1.000
    H451     H        0.77700    0.29190    0.59370    1.000
    C514     C        0.78980    0.33440    0.65330    1.000
    H452     H        0.81170    0.32820    0.66710    1.000
    C515     C        0.77570    0.36519    0.67690    1.000
    C516     C        0.75460    0.37471    0.63570    1.000
    H453     H        0.75020    0.39770    0.63310    1.000
    C517     C        0.73620    0.35334    0.59100    1.000
    H454     H        0.71940    0.36350    0.56150    1.000
    C518     C        0.79450    0.38860    0.73030    1.000
    H455     H        0.77880    0.40520    0.75010    1.000
    H456     H        0.81130    0.40060    0.70020    1.000
    Mn39     Mn       0.77921    0.13699    0.22164    1.000
    O115     O        0.75868    0.09912    0.18543    1.000
    O116     O        0.69753    0.13474    0.36397    1.000
    O117     O        0.79440    0.17740    0.26886    1.000
    N102     N        0.74361    0.14398    0.29377    1.000
    N103     N        0.74608    0.17406    0.33500    1.000
    N104     N        0.85828    0.43996    0.94370    1.000
    C519     C        0.73388    0.08205    0.21580    1.000
    C520     C        0.72760    0.05072    0.18670    1.000
    H457     H        0.74110    0.04250    0.14680    1.000
    C521     C        0.70259    0.03141    0.21370    1.000
    H458     H        0.69870    0.01050    0.19130    1.000
    C522     C        0.68295    0.04172    0.27280    1.000
    H459     H        0.66610    0.02780    0.29250    1.000
    C523     C        0.68823    0.07282    0.30280    1.000
    H460     H        0.67420    0.08050    0.34230    1.000
    C524     C        0.71353    0.09320    0.27670    1.000
    C525     C        0.71807    0.12574    0.31310    1.000
    C526     C        0.77342    0.18893    0.31760    1.000
    C527     C        0.78168    0.22077    0.35540    1.000
    H461     H        0.76200    0.23000    0.38100    1.000
    H462     H        0.78960    0.23700    0.31760    1.000
    C528     C        0.83336    0.42102    0.96470    1.000
    H463     H        0.82660    0.42170    0.01640    1.000
    C529     C        0.81686    0.40056    0.91650    1.000
    H464     H        0.79890    0.38770    0.93440    1.000
    C530     C        0.82629    0.39871    0.84210    1.000
    C531     C        0.85153    0.41868    0.81910    1.000
    H465     H        0.85850    0.41840    0.76760    1.000
    C532     C        0.86694    0.43916    0.87010    1.000
    H466     H        0.88420    0.45310    0.85280    1.000
    C533     C        0.80920    0.37450    0.78820    1.000
    H467     H        0.79270    0.36170    0.81720    1.000
    H468     H        0.82590    0.35880    0.76860    1.000
    Mn40     Mn       0.20518    0.67561    0.92162    1.000
    O118     O        0.23175    0.65436    0.99380    1.000
    O119     O        0.22497    0.75400    0.06617    1.000
    O120     O        0.17969    0.70438    0.85545    1.000
    N105     N        0.21152    0.71732    0.97354    1.000
    N106     N        0.19557    0.74465    0.93776    1.000
    C534     C        0.24710    0.66583    0.05090    1.000
    C535     C        0.26721    0.64465    0.09200    1.000
    H469     H        0.27070    0.62300    0.07310    1.000
    C536     C        0.28200    0.65330    0.15730    1.000
    H470     H        0.29650    0.63820    0.18150    1.000
    C537     C        0.27640    0.68520    0.19170    1.000
    H471     H        0.28400    0.69040    0.24130    1.000
    C538     C        0.25860    0.70827    0.14620    1.000
    H472     H        0.25700    0.73050    0.16250    1.000
    C539     C        0.24404    0.69901    0.07950    1.000
    C540     C        0.22642    0.72455    0.03800    1.000
    C541     C        0.17998    0.73524    0.87710    1.000
    C542     C        0.16220    0.76013    0.83090    1.000
    H473     H        0.14920    0.77430    0.86570    1.000
    H474     H        0.17880    0.77440    0.80590    1.000
    C543     C        0.13952    0.74710    0.77140    1.000
    H475     H        0.12390    0.73160    0.79450    1.000
    H476     H        0.12730    0.76540    0.74830    1.000
    H477     H        0.15240    0.73570    0.73220    1.000
    Mn41     Mn       0.21272    0.79098    0.99747    1.000
    O121     O        0.17109    0.80002    0.03739    1.000
    O122     O        0.18293    0.86517    0.85034    1.000
    O123     O        0.25500    0.78817    0.94663    1.000
    N107     N        0.20735    0.82592    0.92287    1.000
    N108     N        0.23558    0.83109    0.87740    1.000
    N109     N        0.23829    0.82430    0.08420    1.000
    C544     C        0.14900    0.82256    0.01760    1.000
    C545     C        0.12026    0.82474    0.06200    1.000
    H478     H        0.11750    0.81050    0.10430    1.000
    C546     C        0.09635    0.84719    0.04470    1.000
    H479     H        0.07700    0.84820    0.07520    1.000
    C547     C        0.09955    0.86851    0.98400    1.000
    H480     H        0.08260    0.88400    0.97270    1.000
    C548     C        0.12740    0.86708    0.94010    1.000
    H481     H        0.12970    0.88190    0.89860    1.000
    C549     C        0.15256    0.84436    0.95490    1.000
    C550     C        0.18209    0.84528    0.90620    1.000
    C551     C        0.25888    0.81060    0.89510    1.000
    C552     C        0.29208    0.81364    0.85700    1.000
    H482     H        0.29050    0.83070    0.81690    1.000
    H483     H        0.29730    0.79240    0.83190    1.000
    C553     C        0.31830    0.82180    0.90580    1.000
    H484     H        0.33230    0.80240    0.91360    1.000
    H485     H        0.33140    0.83960    0.88300    1.000
    H486     H        0.30950    0.82920    0.95470    1.000
    C554     C        0.26940    0.81330    0.10780    1.000
    H487     H        0.27700    0.79190    0.09370    1.000
    C555     C        0.28980    0.83440    0.15330    1.000
    H488     H        0.31170    0.82820    0.16710    1.000
    C556     C        0.27570    0.86519    0.17690    1.000
    C557     C        0.25460    0.87471    0.13570    1.000
    H489     H        0.25020    0.89770    0.13310    1.000
    C558     C        0.23620    0.85334    0.09100    1.000
    H490     H        0.21940    0.86350    0.06150    1.000
    C559     C        0.29450    0.88860    0.23030    1.000
    H491     H        0.27880    0.90520    0.25010    1.000
    H492     H        0.31130    0.90060    0.20020    1.000
    Mn42     Mn       0.27921    0.63699    0.72164    1.000
    O124     O        0.25868    0.59912    0.68543    1.000
    O125     O        0.19753    0.63474    0.86397    1.000
    O126     O        0.29440    0.67740    0.76886    1.000
    N110     N        0.24361    0.64398    0.79377    1.000
    N111     N        0.24608    0.67406    0.83500    1.000
    N112     N        0.35828    0.93996    0.44370    1.000
    C560     C        0.23388    0.58205    0.71580    1.000
    C561     C        0.22760    0.55072    0.68670    1.000
    H493     H        0.24110    0.54250    0.64680    1.000
    C562     C        0.20259    0.53141    0.71370    1.000
    H494     H        0.19870    0.51050    0.69130    1.000
    C563     C        0.18295    0.54172    0.77280    1.000
    H495     H        0.16610    0.52780    0.79250    1.000
    C564     C        0.18823    0.57282    0.80280    1.000
    H496     H        0.17420    0.58050    0.84230    1.000
    C565     C        0.21353    0.59320    0.77670    1.000
    C566     C        0.21807    0.62574    0.81310    1.000
    C567     C        0.27342    0.68893    0.81760    1.000
    C568     C        0.28168    0.72077    0.85540    1.000
    H497     H        0.26200    0.73000    0.88100    1.000
    H498     H        0.28960    0.73700    0.81760    1.000
    C569     C        0.33336    0.92102    0.46470    1.000
    H499     H        0.32660    0.92170    0.51640    1.000
    C570     C        0.31686    0.90056    0.41650    1.000
    H500     H        0.29890    0.88770    0.43440    1.000
    C571     C        0.32629    0.89871    0.34210    1.000
    C572     C        0.35153    0.91868    0.31910    1.000
    H501     H        0.35850    0.91840    0.26760    1.000
    C573     C        0.36694    0.93916    0.37010    1.000
    H502     H        0.38420    0.95310    0.35280    1.000
    C574     C        0.30920    0.87450    0.28820    1.000
    H503     H        0.29270    0.86170    0.31720    1.000
    H504     H        0.32590    0.85880    0.26860    1.000
    Mn43     Mn       0.79482    0.82439    0.92162    1.000
    O127     O        0.76825    0.84564    0.99380    1.000
    O128     O        0.77503    0.74600    0.06617    1.000
    O129     O        0.82031    0.79562    0.85545    1.000
    N113     N        0.78848    0.78268    0.97354    1.000
    N114     N        0.80443    0.75535    0.93776    1.000
    C575     C        0.75290    0.83417    0.05090    1.000
    C576     C        0.73279    0.85535    0.09200    1.000
    H505     H        0.72930    0.87700    0.07310    1.000
    C577     C        0.71800    0.84670    0.15730    1.000
    H506     H        0.70350    0.86180    0.18150    1.000
    C578     C        0.72360    0.81480    0.19170    1.000
    H507     H        0.71600    0.80960    0.24130    1.000
    C579     C        0.74140    0.79173    0.14620    1.000
    H508     H        0.74300    0.76950    0.16250    1.000
    C580     C        0.75596    0.80099    0.07950    1.000
    C581     C        0.77358    0.77545    0.03800    1.000
    C582     C        0.82002    0.76476    0.87710    1.000
    C583     C        0.83780    0.73987    0.83090    1.000
    H509     H        0.85080    0.72570    0.86570    1.000
    H510     H        0.82120    0.72560    0.80590    1.000
    C584     C        0.86048    0.75290    0.77140    1.000
    H511     H        0.87610    0.76840    0.79450    1.000
    H512     H        0.87270    0.73460    0.74830    1.000
    H513     H        0.84760    0.76430    0.73220    1.000
    Mn44     Mn       0.78728    0.70902    0.99747    1.000
    O130     O        0.82891    0.69998    0.03739    1.000
    O131     O        0.81707    0.63483    0.85034    1.000
    O132     O        0.74500    0.71183    0.94663    1.000
    N115     N        0.79265    0.67408    0.92287    1.000
    N116     N        0.76442    0.66891    0.87740    1.000
    N117     N        0.76171    0.67570    0.08420    1.000
    C585     C        0.85100    0.67744    0.01760    1.000
    C586     C        0.87974    0.67526    0.06200    1.000
    H514     H        0.88250    0.68950    0.10430    1.000
    C587     C        0.90365    0.65281    0.04470    1.000
    H515     H        0.92300    0.65180    0.07520    1.000
    C588     C        0.90045    0.63149    0.98400    1.000
    H516     H        0.91740    0.61600    0.97270    1.000
    C589     C        0.87260    0.63292    0.94010    1.000
    H517     H        0.87030    0.61810    0.89860    1.000
    C590     C        0.84744    0.65564    0.95490    1.000
    C591     C        0.81791    0.65472    0.90620    1.000
    C592     C        0.74112    0.68940    0.89510    1.000
    C593     C        0.70792    0.68636    0.85700    1.000
    H518     H        0.70950    0.66930    0.81690    1.000
    H519     H        0.70270    0.70760    0.83190    1.000
    C594     C        0.68170    0.67820    0.90580    1.000
    H520     H        0.66770    0.69760    0.91360    1.000
    H521     H        0.66860    0.66040    0.88300    1.000
    H522     H        0.69050    0.67080    0.95470    1.000
    C595     C        0.73060    0.68670    0.10780    1.000
    H523     H        0.72300    0.70810    0.09370    1.000
    C596     C        0.71020    0.66560    0.15330    1.000
    H524     H        0.68830    0.67180    0.16710    1.000
    C597     C        0.72430    0.63481    0.17690    1.000
    C598     C        0.74540    0.62529    0.13570    1.000
    H525     H        0.74980    0.60230    0.13310    1.000
    C599     C        0.76380    0.64666    0.09100    1.000
    H526     H        0.78060    0.63650    0.06150    1.000
    C600     C        0.70550    0.61140    0.23030    1.000
    H527     H        0.72120    0.59480    0.25010    1.000
    H528     H        0.68870    0.59940    0.20020    1.000
    Mn45     Mn       0.72079    0.86301    0.72164    1.000
    O133     O        0.74132    0.90088    0.68543    1.000
    O134     O        0.80247    0.86526    0.86397    1.000
    O135     O        0.70560    0.82260    0.76886    1.000
    N118     N        0.75639    0.85602    0.79377    1.000
    N119     N        0.75392    0.82594    0.83500    1.000
    N120     N        0.64172    0.56004    0.44370    1.000
    C601     C        0.76612    0.91795    0.71580    1.000
    C602     C        0.77240    0.94928    0.68670    1.000
    H529     H        0.75890    0.95750    0.64680    1.000
    C603     C        0.79741    0.96859    0.71370    1.000
    H530     H        0.80130    0.98950    0.69130    1.000
    C604     C        0.81705    0.95828    0.77280    1.000
    H531     H        0.83390    0.97220    0.79250    1.000
    C605     C        0.81177    0.92718    0.80280    1.000
    H532     H        0.82580    0.91950    0.84230    1.000
    C606     C        0.78647    0.90680    0.77670    1.000
    C607     C        0.78193    0.87426    0.81310    1.000
    C608     C        0.72658    0.81107    0.81760    1.000
    C609     C        0.71832    0.77923    0.85540    1.000
    H533     H        0.73800    0.77000    0.88100    1.000
    H534     H        0.71040    0.76300    0.81760    1.000
    C610     C        0.66664    0.57898    0.46470    1.000
    H535     H        0.67340    0.57830    0.51640    1.000
    C611     C        0.68314    0.59944    0.41650    1.000
    H536     H        0.70110    0.61230    0.43440    1.000
    C612     C        0.67371    0.60129    0.34210    1.000
    C613     C        0.64847    0.58132    0.31910    1.000
    H537     H        0.64150    0.58160    0.26760    1.000
    C614     C        0.63306    0.56084    0.37010    1.000
    H538     H        0.61580    0.54690    0.35280    1.000
    C615     C        0.69080    0.62550    0.28820    1.000
    H539     H        0.70730    0.63830    0.31720    1.000
    H540     H        0.67410    0.64120    0.26860    1.000
    Mn46     Mn       0.29482    0.32439    0.42162    1.000
    O136     O        0.26825    0.34564    0.49380    1.000
    O137     O        0.27503    0.24600    0.56617    1.000
    O138     O        0.32031    0.29562    0.35545    1.000
    N121     N        0.28848    0.28268    0.47354    1.000
    N122     N        0.30443    0.25535    0.43776    1.000
    C616     C        0.25290    0.33417    0.55090    1.000
    C617     C        0.23279    0.35535    0.59200    1.000
    H541     H        0.22930    0.37700    0.57310    1.000
    C618     C        0.21800    0.34670    0.65730    1.000
    H542     H        0.20350    0.36180    0.68150    1.000
    C619     C        0.22360    0.31480    0.69170    1.000
    H543     H        0.21600    0.30960    0.74130    1.000
    C620     C        0.24140    0.29173    0.64620    1.000
    H544     H        0.24300    0.26950    0.66250    1.000
    C621     C        0.25596    0.30099    0.57950    1.000
    C622     C        0.27358    0.27545    0.53800    1.000
    C623     C        0.32002    0.26476    0.37710    1.000
    C624     C        0.33780    0.23987    0.33090    1.000
    H545     H        0.35080    0.22570    0.36570    1.000
    H546     H        0.32120    0.22560    0.30590    1.000
    C625     C        0.36048    0.25290    0.27140    1.000
    H547     H        0.37610    0.26840    0.29450    1.000
    H548     H        0.37270    0.23460    0.24830    1.000
    H549     H        0.34760    0.26430    0.23220    1.000
    Mn47     Mn       0.28728    0.20902    0.49747    1.000
    O139     O        0.32891    0.19998    0.53739    1.000
    O140     O        0.31707    0.13483    0.35034    1.000
    O141     O        0.24500    0.21183    0.44663    1.000
    N123     N        0.29265    0.17408    0.42287    1.000
    N124     N        0.26442    0.16891    0.37740    1.000
    N125     N        0.26171    0.17570    0.58420    1.000
    C626     C        0.35100    0.17744    0.51760    1.000
    C627     C        0.37974    0.17526    0.56200    1.000
    H550     H        0.38250    0.18950    0.60430    1.000
    C628     C        0.40365    0.15281    0.54470    1.000
    H551     H        0.42300    0.15180    0.57520    1.000
    C629     C        0.40045    0.13149    0.48400    1.000
    H552     H        0.41740    0.11600    0.47270    1.000
    C630     C        0.37260    0.13292    0.44010    1.000
    H553     H        0.37030    0.11810    0.39860    1.000
    C631     C        0.34744    0.15564    0.45490    1.000
    C632     C        0.31791    0.15472    0.40620    1.000
    C633     C        0.24112    0.18940    0.39510    1.000
    C634     C        0.20792    0.18636    0.35700    1.000
    H554     H        0.20950    0.16930    0.31690    1.000
    H555     H        0.20270    0.20760    0.33190    1.000
    C635     C        0.18170    0.17820    0.40580    1.000
    H556     H        0.16770    0.19760    0.41360    1.000
    H557     H        0.16860    0.16040    0.38300    1.000
    H558     H        0.19050    0.17080    0.45470    1.000
    C636     C        0.23060    0.18670    0.60780    1.000
    H559     H        0.22300    0.20810    0.59370    1.000
    C637     C        0.21020    0.16560    0.65330    1.000
    H560     H        0.18830    0.17180    0.66710    1.000
    C638     C        0.22430    0.13481    0.67690    1.000
    C639     C        0.24540    0.12529    0.63570    1.000
    H561     H        0.24980    0.10230    0.63310    1.000
    C640     C        0.26380    0.14666    0.59100    1.000
    H562     H        0.28060    0.13650    0.56150    1.000
    C641     C        0.20550    0.11140    0.73030    1.000
    H563     H        0.22120    0.09480    0.75010    1.000
    H564     H        0.18870    0.09940    0.70020    1.000
    Mn48     Mn       0.22079    0.36301    0.22164    1.000
    O142     O        0.24132    0.40088    0.18543    1.000
    O143     O        0.30247    0.36526    0.36397    1.000
    O144     O        0.20560    0.32260    0.26886    1.000
    N126     N        0.25639    0.35602    0.29377    1.000
    N127     N        0.25392    0.32594    0.33500    1.000
    N128     N        0.14172    0.06004    0.94370    1.000
    C642     C        0.26612    0.41795    0.21580    1.000
    C643     C        0.27240    0.44928    0.18670    1.000
    H565     H        0.25890    0.45750    0.14680    1.000
    C644     C        0.29741    0.46859    0.21370    1.000
    H566     H        0.30130    0.48950    0.19130    1.000
    C645     C        0.31705    0.45828    0.27280    1.000
    H567     H        0.33390    0.47220    0.29250    1.000
    C646     C        0.31177    0.42718    0.30280    1.000
    H568     H        0.32580    0.41950    0.34230    1.000
    C647     C        0.28647    0.40680    0.27670    1.000
    C648     C        0.28193    0.37426    0.31310    1.000
    C649     C        0.22658    0.31107    0.31760    1.000
    C650     C        0.21832    0.27923    0.35540    1.000
    H569     H        0.23800    0.27000    0.38100    1.000
    H570     H        0.21040    0.26300    0.31760    1.000
    C651     C        0.16664    0.07898    0.96470    1.000
    H571     H        0.17340    0.07830    0.01640    1.000
    C652     C        0.18314    0.09944    0.91650    1.000
    H572     H        0.20110    0.11230    0.93440    1.000
    C653     C        0.17371    0.10129    0.84210    1.000
    C654     C        0.14847    0.08132    0.81910    1.000
    H573     H        0.14150    0.08160    0.76760    1.000
    C655     C        0.13306    0.06084    0.87010    1.000
    H574     H        0.11580    0.04690    0.85280    1.000
    C656     C        0.19080    0.12550    0.78820    1.000
    H575     H        0.20730    0.13830    0.81720    1.000
    H576     H        0.17410    0.14120    0.76860    1.000
