# CIF file generated by openbabel 3.1.0, see https://openbabel.org
data_I
_chemical_name_common 'QIDDAI01_clean_h'
_cell_length_a 13.0455
_cell_length_b 13.0455
_cell_length_c 16.685
_cell_angle_alpha 109.471
_cell_angle_beta 109.471
_cell_angle_gamma 93.7056
_space_group_name_H-M_alt 'P 1'
_space_group_name_Hall 'P 1'
loop_
    _symmetry_equiv_pos_as_xyz
    x,y,z
loop_
    _atom_site_label
    _atom_site_type_symbol
    _atom_site_fract_x
    _atom_site_fract_y
    _atom_site_fract_z
    _atom_site_occupancy
    Cd1      Cd       0.12249    0.87751    0.75000    1.000
    Cd2      Cd       0.87751    0.12249    0.25000    1.000
    C1       C        0.30405    0.78595    0.66350    1.000
    C2       C        0.11790    0.71110    0.55400    1.000
    C3       C        0.34280    0.72620    0.59200    1.000
    C4       C        0.15410    0.64990    0.48300    1.000
    C5       C        0.27085    0.66015    0.50400    1.000
    C6       C        0.30750    0.59650    0.42700    1.000
    C7       C        0.40715    0.54685    0.46500    1.000
    C8       C        0.51465    0.60175    0.49600    1.000
    C9       C        0.60590    0.55710    0.53150    1.000
    C10      C        0.15770    0.12830    0.90100    1.000
    C11      C        0.00025    0.01075    0.88250    1.000
    C12      C        0.13685    0.22215    0.96250    1.000
    C13      C        0.97485    0.10315    0.94600    1.000
    C14      C        0.04105    0.20695    0.98500    1.000
    C15      C        0.01705    0.30395    0.05600    1.000
    C16      C        0.00950    0.40350    0.02600    1.000
    C17      C        0.09355    0.49945    0.06800    1.000
    C18      C        0.08280    0.58920    0.04400    1.000
    C19      C        0.21405    0.69595    0.83650    1.000
    C20      C        0.28890    0.88210    0.94600    1.000
    C21      C        0.27380    0.65720    0.90800    1.000
    C22      C        0.35010    0.84590    0.01700    1.000
    C23      C        0.33985    0.72915    0.99600    1.000
    C24      C        0.40350    0.69250    0.07300    1.000
    C25      C        0.45315    0.59285    0.03500    1.000
    C26      C        0.39825    0.48535    0.00400    1.000
    C27      C        0.44290    0.39410    0.96850    1.000
    C28      C        0.87170    0.84230    0.59900    1.000
    C29      C        0.98925    0.99975    0.61750    1.000
    C30      C        0.77785    0.86315    0.53750    1.000
    C31      C        0.89685    0.02515    0.55400    1.000
    C32      C        0.79305    0.95895    0.51500    1.000
    C33      C        0.69605    0.98295    0.44400    1.000
    C34      C        0.59650    0.99050    0.47400    1.000
    C35      C        0.50055    0.90645    0.43200    1.000
    C36      C        0.41080    0.91720    0.45600    1.000
    C37      C        0.69595    0.21405    0.33650    1.000
    C38      C        0.88210    0.28890    0.44600    1.000
    C39      C        0.65720    0.27380    0.40800    1.000
    C40      C        0.84590    0.35010    0.51700    1.000
    C41      C        0.72915    0.33985    0.49600    1.000
    C42      C        0.69250    0.40350    0.57300    1.000
    C43      C        0.59285    0.45315    0.53500    1.000
    C44      C        0.48535    0.39825    0.50400    1.000
    C45      C        0.39410    0.44290    0.46850    1.000
    C46      C        0.84230    0.87170    0.09900    1.000
    C47      C        0.99975    0.98925    0.11750    1.000
    C48      C        0.86315    0.77785    0.03750    1.000
    C49      C        0.02515    0.89685    0.05400    1.000
    C50      C        0.95895    0.79305    0.01500    1.000
    C51      C        0.98295    0.69605    0.94400    1.000
    C52      C        0.99050    0.59650    0.97400    1.000
    C53      C        0.90645    0.50055    0.93200    1.000
    C54      C        0.91720    0.41080    0.95600    1.000
    C55      C        0.78595    0.30405    0.16350    1.000
    C56      C        0.71110    0.11790    0.05400    1.000
    C57      C        0.72620    0.34280    0.09200    1.000
    C58      C        0.64990    0.15410    0.98300    1.000
    C59      C        0.66015    0.27085    0.00400    1.000
    C60      C        0.59650    0.30750    0.92700    1.000
    C61      C        0.54685    0.40715    0.96500    1.000
    C62      C        0.60175    0.51465    0.99600    1.000
    C63      C        0.55710    0.60590    0.03150    1.000
    C64      C        0.12830    0.15770    0.40100    1.000
    C65      C        0.01075    0.00025    0.38250    1.000
    C66      C        0.22215    0.13685    0.46250    1.000
    C67      C        0.10315    0.97485    0.44600    1.000
    C68      C        0.20695    0.04105    0.48500    1.000
    C69      C        0.30395    0.01705    0.55600    1.000
    C70      C        0.40350    0.00950    0.52600    1.000
    C71      C        0.49945    0.09355    0.56800    1.000
    C72      C        0.58920    0.08280    0.54400    1.000
    N1       N        0.19140    0.77440    0.63950    1.000
    N2       N        0.09175    0.02825    0.86300    1.000
    N3       N        0.22560    0.80860    0.86050    1.000
    N4       N        0.97175    0.90825    0.63700    1.000
    N5       N        0.80860    0.22560    0.36050    1.000
    N6       N        0.90825    0.97175    0.13700    1.000
    N7       N        0.77440    0.19140    0.13950    1.000
    N8       N        0.02825    0.09175    0.36300    1.000
    F1       F        0.53495    0.70475    0.49360    1.000
    F2       F        0.70945    0.61685    0.55990    1.000
    F3       F        0.18595    0.50415    0.13845    1.000
    F4       F        0.16665    0.68025    0.08990    1.000
    F5       F        0.29525    0.46505    0.00640    1.000
    F6       F        0.38315    0.29055    0.94010    1.000
    F7       F        0.49585    0.81405    0.36155    1.000
    F8       F        0.31975    0.83335    0.41010    1.000
    F9       F        0.46505    0.29525    0.50640    1.000
    F10      F        0.29055    0.38315    0.44010    1.000
    F11      F        0.81405    0.49585    0.86155    1.000
    F12      F        0.83335    0.31975    0.91010    1.000
    F13      F        0.70475    0.53495    0.99360    1.000
    F14      F        0.61685    0.70945    0.05990    1.000
    F15      F        0.50415    0.18595    0.63845    1.000
    F16      F        0.68025    0.16665    0.58990    1.000
    H1       H        0.36642    0.83904    0.73524    1.000
    H2       H        0.02555    0.70714    0.53911    1.000
    H3       H        0.43552    0.73293    0.60763    1.000
    H4       H        0.09050    0.59510    0.41230    1.000
    H5       H        0.33180    0.65527    0.39595    1.000
    H6       H        0.23631    0.52688    0.37171    1.000
    H7       H        0.40636    0.58566    0.53690    1.000
    H8       H        0.23336    0.13656    0.88219    1.000
    H9       H        0.94394    0.92540    0.84996    1.000
    H10      H        0.19511    0.30600    0.99228    1.000
    H11      H        0.89930    0.08988    0.96391    1.000
    H12      H        0.08683    0.32915    0.12609    1.000
    H13      H        0.93515    0.27634    0.06056    1.000
    H14      H        0.04852    0.36428    0.97421    1.000
    H15      H        0.16096    0.63358    0.76476    1.000
    H16      H        0.29286    0.97445    0.96089    1.000
    H17      H        0.26707    0.56448    0.89237    1.000
    H18      H        0.40490    0.90950    0.08770    1.000
    H19      H        0.34473    0.66820    0.10405    1.000
    H20      H        0.47312    0.76369    0.12829    1.000
    H21      H        0.41434    0.59364    0.96310    1.000
    H22      H        0.86344    0.76664    0.61781    1.000
    H23      H        0.07460    0.05606    0.65004    1.000
    H24      H        0.69400    0.80489    0.50772    1.000
    H25      H        0.91012    0.10070    0.53609    1.000
    H26      H        0.67085    0.91317    0.37391    1.000
    H27      H        0.72366    0.06485    0.43944    1.000
    H28      H        0.63572    0.95148    0.52579    1.000
    H29      H        0.63358    0.16096    0.26476    1.000
    H30      H        0.97445    0.29286    0.46089    1.000
    H31      H        0.56448    0.26707    0.39237    1.000
    H32      H        0.90950    0.40490    0.58770    1.000
    H33      H        0.76664    0.86344    0.11781    1.000
    H34      H        0.05606    0.07460    0.15004    1.000
    H35      H        0.80489    0.69400    0.00772    1.000
    H36      H        0.10070    0.91012    0.03609    1.000
    H37      H        0.83904    0.36642    0.23524    1.000
    H38      H        0.70714    0.02555    0.03911    1.000
    H39      H        0.73293    0.43552    0.10763    1.000
    H40      H        0.59510    0.09050    0.91230    1.000
    H41      H        0.52699    0.23622    0.87169    1.000
    H42      H        0.65524    0.33195    0.89598    1.000
    H43      H        0.58566    0.40636    0.03690    1.000
    H44      H        0.13656    0.23336    0.38219    1.000
    H45      H        0.92540    0.94394    0.34996    1.000
    H46      H        0.30600    0.19511    0.49228    1.000
    H47      H        0.08988    0.89930    0.46391    1.000
    H48      H        0.27628    0.93519    0.56058    1.000
    H49      H        0.32923    0.08684    0.62609    1.000
    H50      H        0.36428    0.04852    0.47421    1.000
    H51      H        0.76378    0.47301    0.62831    1.000
    H52      H        0.66805    0.34476    0.60402    1.000
    H53      H        0.59364    0.41434    0.46310    1.000
