# CIF file generated by openbabel 3.1.0, see https://openbabel.org
data_I
_chemical_name_common 'image0'
_cell_length_a 11.5002
_cell_length_b 40.7068
_cell_length_c 17.0238
_cell_angle_alpha 90
_cell_angle_beta 90
_cell_angle_gamma 90
_space_group_name_H-M_alt 'P 1'
_space_group_name_Hall 'P 1'
loop_
    _symmetry_equiv_pos_as_xyz
    x,y,z
loop_
    _atom_site_label
    _atom_site_type_symbol
    _atom_site_fract_x
    _atom_site_fract_y
    _atom_site_fract_z
    _atom_site_occupancy
    Tb1      Tb       0.01962    0.26458    0.43354    1.000
    O1       O        0.19300    0.29077    0.44600    1.000
    O2       O        0.04050    0.40285    0.47360    1.000
    H1       H        0.99490    0.41690    0.49250    1.000
    C1       C        0.31020    0.33828    0.43270    1.000
    O3       O        0.21450    0.43511    0.25210    1.000
    O4       O        0.38480    0.28483    0.45130    1.000
    O5       O        0.14930    0.44621    0.44830    1.000
    C2       C        0.54460    0.40009    0.38450    1.000
    C3       C        0.21650    0.35954    0.44560    1.000
    H2       H        0.14220    0.35100    0.45890    1.000
    O6       O        0.96030    0.30171    0.33670    1.000
    N1       N        0.63760    0.38249    0.36140    1.000
    O7       O        0.06979    0.46734    0.22323    1.000
    C4       C        0.23260    0.39301    0.43904    1.000
    C5       C        0.72069    0.40567    0.34912    1.000
    C6       C        0.02250    0.32134    0.29809    1.000
    C7       C        0.10799    0.44036    0.24953    1.000
    C8       C        0.91061    0.42225    0.29642    1.000
    H3       H        0.88460    0.44440    0.29460    1.000
    C9       C        0.87330    0.36467    0.32180    1.000
    H4       H        0.82260    0.34770    0.33900    1.000
    C10      C        0.13730    0.41692    0.45410    1.000
    O8       O        0.11430    0.31295    0.26410    1.000
    C11      C        0.33960    0.40552    0.41720    1.000
    H5       H        0.34880    0.42860    0.41090    1.000
    C12      C        0.43290    0.38507    0.40450    1.000
    C13      C        0.41790    0.35118    0.41160    1.000
    H6       H        0.48140    0.33680    0.40190    1.000
    C14      C        0.29460    0.30178    0.44360    1.000
    C15      C        0.98470    0.35687    0.29640    1.000
    C16      C        0.06120    0.38183    0.27330    1.000
    H7       H        0.13830    0.37660    0.25770    1.000
    C17      C        0.02430    0.41431    0.27320    1.000
    N2       N        0.68550    0.43483    0.36400    1.000
    N3       N        0.56640    0.43159    0.38880    1.000
    C18      C        0.83530    0.39721    0.32240    1.000
    H8       H        0.53910    0.45020    0.39410    1.000
    Tb2      Tb       0.01962    0.76458    0.93354    1.000
    O9       O        0.19300    0.79077    0.94600    1.000
    O10      O        0.04050    0.90285    0.97360    1.000
    H9       H        0.99490    0.91690    0.99250    1.000
    C19      C        0.31020    0.83828    0.93270    1.000
    O11      O        0.21450    0.93511    0.75210    1.000
    O12      O        0.38480    0.78483    0.95130    1.000
    O13      O        0.14930    0.94621    0.94830    1.000
    C20      C        0.54460    0.90009    0.88450    1.000
    C21      C        0.21650    0.85954    0.94560    1.000
    H10      H        0.14220    0.85100    0.95890    1.000
    O14      O        0.96030    0.80171    0.83670    1.000
    N4       N        0.63760    0.88249    0.86140    1.000
    O15      O        0.06979    0.96734    0.72323    1.000
    C22      C        0.23260    0.89301    0.93904    1.000
    C23      C        0.72069    0.90567    0.84912    1.000
    C24      C        0.02250    0.82134    0.79809    1.000
    C25      C        0.10799    0.94036    0.74953    1.000
    C26      C        0.91061    0.92225    0.79642    1.000
    H11      H        0.88460    0.94440    0.79460    1.000
    C27      C        0.87330    0.86467    0.82180    1.000
    H12      H        0.82260    0.84770    0.83900    1.000
    C28      C        0.13730    0.91692    0.95410    1.000
    O16      O        0.11430    0.81295    0.76410    1.000
    C29      C        0.33960    0.90552    0.91720    1.000
    H13      H        0.34880    0.92860    0.91090    1.000
    C30      C        0.43290    0.88507    0.90450    1.000
    C31      C        0.41790    0.85118    0.91160    1.000
    H14      H        0.48140    0.83680    0.90190    1.000
    C32      C        0.29460    0.80178    0.94360    1.000
    C33      C        0.98470    0.85687    0.79640    1.000
    C34      C        0.06120    0.88183    0.77330    1.000
    H15      H        0.13830    0.87660    0.75770    1.000
    C35      C        0.02430    0.91431    0.77320    1.000
    N5       N        0.68550    0.93483    0.86400    1.000
    N6       N        0.56640    0.93159    0.88880    1.000
    C36      C        0.83530    0.89721    0.82240    1.000
    H16      H        0.53910    0.95020    0.89410    1.000
    Tb3      Tb       0.51962    0.26458    0.93354    1.000
    O17      O        0.69300    0.29077    0.94600    1.000
    O18      O        0.54050    0.40285    0.97360    1.000
    H17      H        0.49490    0.41690    0.99250    1.000
    C37      C        0.81020    0.33828    0.93270    1.000
    O19      O        0.71450    0.43511    0.75210    1.000
    O20      O        0.88480    0.28483    0.95130    1.000
    O21      O        0.64930    0.44621    0.94830    1.000
    C38      C        0.04460    0.40009    0.88450    1.000
    C39      C        0.71650    0.35954    0.94560    1.000
    H18      H        0.64220    0.35100    0.95890    1.000
    O22      O        0.46030    0.30171    0.83670    1.000
    N7       N        0.13760    0.38249    0.86140    1.000
    O23      O        0.56979    0.46734    0.72323    1.000
    C40      C        0.73260    0.39301    0.93904    1.000
    C41      C        0.22069    0.40567    0.84912    1.000
    C42      C        0.52250    0.32134    0.79809    1.000
    C43      C        0.60799    0.44036    0.74953    1.000
    C44      C        0.41061    0.42225    0.79642    1.000
    H19      H        0.38460    0.44440    0.79460    1.000
    C45      C        0.37330    0.36467    0.82180    1.000
    H20      H        0.32260    0.34770    0.83900    1.000
    C46      C        0.63730    0.41692    0.95410    1.000
    O24      O        0.61430    0.31295    0.76410    1.000
    C47      C        0.83960    0.40552    0.91720    1.000
    H21      H        0.84880    0.42860    0.91090    1.000
    C48      C        0.93290    0.38507    0.90450    1.000
    C49      C        0.91790    0.35118    0.91160    1.000
    H22      H        0.98140    0.33680    0.90190    1.000
    C50      C        0.79460    0.30178    0.94360    1.000
    C51      C        0.48470    0.35687    0.79640    1.000
    C52      C        0.56120    0.38183    0.77330    1.000
    H23      H        0.63830    0.37660    0.75770    1.000
    C53      C        0.52430    0.41431    0.77320    1.000
    N8       N        0.18550    0.43483    0.86400    1.000
    N9       N        0.06640    0.43159    0.88880    1.000
    C54      C        0.33530    0.39721    0.82240    1.000
    H24      H        0.03910    0.45020    0.89410    1.000
    Tb4      Tb       0.51962    0.76458    0.43354    1.000
    O25      O        0.69300    0.79077    0.44600    1.000
    O26      O        0.54050    0.90285    0.47360    1.000
    H25      H        0.49490    0.91690    0.49250    1.000
    C55      C        0.81020    0.83828    0.43270    1.000
    O27      O        0.71450    0.93511    0.25210    1.000
    O28      O        0.88480    0.78483    0.45130    1.000
    O29      O        0.64930    0.94621    0.44830    1.000
    C56      C        0.04460    0.90009    0.38450    1.000
    C57      C        0.71650    0.85954    0.44560    1.000
    H26      H        0.64220    0.85100    0.45890    1.000
    O30      O        0.46030    0.80171    0.33670    1.000
    N10      N        0.13760    0.88249    0.36140    1.000
    O31      O        0.56979    0.96734    0.22323    1.000
    C58      C        0.73260    0.89301    0.43904    1.000
    C59      C        0.22069    0.90567    0.34912    1.000
    C60      C        0.52250    0.82134    0.29809    1.000
    C61      C        0.60799    0.94036    0.24953    1.000
    C62      C        0.41061    0.92225    0.29642    1.000
    H27      H        0.38460    0.94440    0.29460    1.000
    C63      C        0.37330    0.86467    0.32180    1.000
    H28      H        0.32260    0.84770    0.33900    1.000
    C64      C        0.63730    0.91692    0.45410    1.000
    O32      O        0.61430    0.81295    0.26410    1.000
    C65      C        0.83960    0.90552    0.41720    1.000
    H29      H        0.84880    0.92860    0.41090    1.000
    C66      C        0.93290    0.88507    0.40450    1.000
    C67      C        0.91790    0.85118    0.41160    1.000
    H30      H        0.98140    0.83680    0.40190    1.000
    C68      C        0.79460    0.80178    0.44360    1.000
    C69      C        0.48470    0.85687    0.29640    1.000
    C70      C        0.56120    0.88183    0.27330    1.000
    H31      H        0.63830    0.87660    0.25770    1.000
    C71      C        0.52430    0.91431    0.27320    1.000
    N11      N        0.18550    0.93483    0.36400    1.000
    N12      N        0.06640    0.93159    0.38880    1.000
    C72      C        0.33530    0.89721    0.32240    1.000
    H32      H        0.03910    0.95020    0.39410    1.000
    Tb5      Tb       0.98038    0.73542    0.43354    1.000
    O33      O        0.80700    0.70923    0.44600    1.000
    O34      O        0.95950    0.59715    0.47360    1.000
    H33      H        0.00510    0.58310    0.49250    1.000
    C73      C        0.68980    0.66172    0.43270    1.000
    O35      O        0.78550    0.56489    0.25210    1.000
    O36      O        0.61520    0.71517    0.45130    1.000
    O37      O        0.85070    0.55379    0.44830    1.000
    C74      C        0.45540    0.59991    0.38450    1.000
    C75      C        0.78350    0.64046    0.44560    1.000
    H34      H        0.85780    0.64900    0.45890    1.000
    O38      O        0.03970    0.69829    0.33670    1.000
    N13      N        0.36240    0.61751    0.36140    1.000
    O39      O        0.93021    0.53266    0.22323    1.000
    C76      C        0.76740    0.60699    0.43904    1.000
    C77      C        0.27931    0.59433    0.34912    1.000
    C78      C        0.97750    0.67866    0.29809    1.000
    C79      C        0.89201    0.55964    0.24953    1.000
    C80      C        0.08939    0.57775    0.29642    1.000
    H35      H        0.11540    0.55560    0.29460    1.000
    C81      C        0.12670    0.63533    0.32180    1.000
    H36      H        0.17740    0.65230    0.33900    1.000
    C82      C        0.86270    0.58308    0.45410    1.000
    O40      O        0.88570    0.68705    0.26410    1.000
    C83      C        0.66040    0.59448    0.41720    1.000
    H37      H        0.65120    0.57140    0.41090    1.000
    C84      C        0.56710    0.61493    0.40450    1.000
    C85      C        0.58210    0.64882    0.41160    1.000
    H38      H        0.51860    0.66320    0.40190    1.000
    C86      C        0.70540    0.69822    0.44360    1.000
    C87      C        0.01530    0.64313    0.29640    1.000
    C88      C        0.93880    0.61817    0.27330    1.000
    H39      H        0.86170    0.62340    0.25770    1.000
    C89      C        0.97570    0.58569    0.27320    1.000
    N14      N        0.31450    0.56517    0.36400    1.000
    N15      N        0.43360    0.56841    0.38880    1.000
    C90      C        0.16470    0.60279    0.32240    1.000
    H40      H        0.46090    0.54980    0.39410    1.000
    Tb6      Tb       0.98038    0.23542    0.93354    1.000
    O41      O        0.80700    0.20923    0.94600    1.000
    O42      O        0.95950    0.09715    0.97360    1.000
    H41      H        0.00510    0.08310    0.99250    1.000
    C91      C        0.68980    0.16172    0.93270    1.000
    O43      O        0.78550    0.06489    0.75210    1.000
    O44      O        0.61520    0.21517    0.95130    1.000
    O45      O        0.85070    0.05379    0.94830    1.000
    C92      C        0.45540    0.09991    0.88450    1.000
    C93      C        0.78350    0.14046    0.94560    1.000
    H42      H        0.85780    0.14900    0.95890    1.000
    O46      O        0.03970    0.19829    0.83670    1.000
    N16      N        0.36240    0.11751    0.86140    1.000
    O47      O        0.93021    0.03266    0.72323    1.000
    C94      C        0.76740    0.10699    0.93904    1.000
    C95      C        0.27931    0.09433    0.84912    1.000
    C96      C        0.97750    0.17866    0.79809    1.000
    C97      C        0.89201    0.05964    0.74953    1.000
    C98      C        0.08939    0.07775    0.79642    1.000
    H43      H        0.11540    0.05560    0.79460    1.000
    C99      C        0.12670    0.13533    0.82180    1.000
    H44      H        0.17740    0.15230    0.83900    1.000
    C100     C        0.86270    0.08308    0.95410    1.000
    O48      O        0.88570    0.18705    0.76410    1.000
    C101     C        0.66040    0.09448    0.91720    1.000
    H45      H        0.65120    0.07140    0.91090    1.000
    C102     C        0.56710    0.11493    0.90450    1.000
    C103     C        0.58210    0.14882    0.91160    1.000
    H46      H        0.51860    0.16320    0.90190    1.000
    C104     C        0.70540    0.19822    0.94360    1.000
    C105     C        0.01530    0.14313    0.79640    1.000
    C106     C        0.93880    0.11817    0.77330    1.000
    H47      H        0.86170    0.12340    0.75770    1.000
    C107     C        0.97570    0.08569    0.77320    1.000
    N17      N        0.31450    0.06517    0.86400    1.000
    N18      N        0.43360    0.06841    0.88880    1.000
    C108     C        0.16470    0.10279    0.82240    1.000
    H48      H        0.46090    0.04980    0.89410    1.000
    Tb7      Tb       0.48038    0.73542    0.93354    1.000
    O49      O        0.30700    0.70923    0.94600    1.000
    O50      O        0.45950    0.59715    0.97360    1.000
    H49      H        0.50510    0.58310    0.99250    1.000
    C109     C        0.18980    0.66172    0.93270    1.000
    O51      O        0.28550    0.56489    0.75210    1.000
    O52      O        0.11520    0.71517    0.95130    1.000
    O53      O        0.35070    0.55379    0.94830    1.000
    C110     C        0.95540    0.59991    0.88450    1.000
    C111     C        0.28350    0.64046    0.94560    1.000
    H50      H        0.35780    0.64900    0.95890    1.000
    O54      O        0.53970    0.69829    0.83670    1.000
    N19      N        0.86240    0.61751    0.86140    1.000
    O55      O        0.43021    0.53266    0.72323    1.000
    C112     C        0.26740    0.60699    0.93904    1.000
    C113     C        0.77931    0.59433    0.84912    1.000
    C114     C        0.47750    0.67866    0.79809    1.000
    C115     C        0.39201    0.55964    0.74953    1.000
    C116     C        0.58939    0.57775    0.79642    1.000
    H51      H        0.61540    0.55560    0.79460    1.000
    C117     C        0.62670    0.63533    0.82180    1.000
    H52      H        0.67740    0.65230    0.83900    1.000
    C118     C        0.36270    0.58308    0.95410    1.000
    O56      O        0.38570    0.68705    0.76410    1.000
    C119     C        0.16040    0.59448    0.91720    1.000
    H53      H        0.15120    0.57140    0.91090    1.000
    C120     C        0.06710    0.61493    0.90450    1.000
    C121     C        0.08210    0.64882    0.91160    1.000
    H54      H        0.01860    0.66320    0.90190    1.000
    C122     C        0.20540    0.69822    0.94360    1.000
    C123     C        0.51530    0.64313    0.79640    1.000
    C124     C        0.43880    0.61817    0.77330    1.000
    H55      H        0.36170    0.62340    0.75770    1.000
    C125     C        0.47570    0.58569    0.77320    1.000
    N20      N        0.81450    0.56517    0.86400    1.000
    N21      N        0.93360    0.56841    0.88880    1.000
    C126     C        0.66470    0.60279    0.82240    1.000
    H56      H        0.96090    0.54980    0.89410    1.000
    Tb8      Tb       0.48038    0.23542    0.43354    1.000
    O57      O        0.30700    0.20923    0.44600    1.000
    O58      O        0.45950    0.09715    0.47360    1.000
    H57      H        0.50510    0.08310    0.49250    1.000
    C127     C        0.18980    0.16172    0.43270    1.000
    O59      O        0.28550    0.06489    0.25210    1.000
    O60      O        0.11520    0.21517    0.45130    1.000
    O61      O        0.35070    0.05379    0.44830    1.000
    C128     C        0.95540    0.09991    0.38450    1.000
    C129     C        0.28350    0.14046    0.44560    1.000
    H58      H        0.35780    0.14900    0.45890    1.000
    O62      O        0.53970    0.19829    0.33670    1.000
    N22      N        0.86240    0.11751    0.36140    1.000
    O63      O        0.43021    0.03266    0.22323    1.000
    C130     C        0.26740    0.10699    0.43904    1.000
    C131     C        0.77931    0.09433    0.34912    1.000
    C132     C        0.47750    0.17866    0.29809    1.000
    C133     C        0.39201    0.05964    0.24953    1.000
    C134     C        0.58939    0.07775    0.29642    1.000
    H59      H        0.61540    0.05560    0.29460    1.000
    C135     C        0.62670    0.13533    0.32180    1.000
    H60      H        0.67740    0.15230    0.33900    1.000
    C136     C        0.36270    0.08308    0.45410    1.000
    O64      O        0.38570    0.18705    0.26410    1.000
    C137     C        0.16040    0.09448    0.41720    1.000
    H61      H        0.15120    0.07140    0.41090    1.000
    C138     C        0.06710    0.11493    0.40450    1.000
    C139     C        0.08210    0.14882    0.41160    1.000
    H62      H        0.01860    0.16320    0.40190    1.000
    C140     C        0.20540    0.19822    0.44360    1.000
    C141     C        0.51530    0.14313    0.29640    1.000
    C142     C        0.43880    0.11817    0.27330    1.000
    H63      H        0.36170    0.12340    0.25770    1.000
    C143     C        0.47570    0.08569    0.27320    1.000
    N23      N        0.81450    0.06517    0.36400    1.000
    N24      N        0.93360    0.06841    0.38880    1.000
    C144     C        0.66470    0.10279    0.32240    1.000
    H64      H        0.96090    0.04980    0.39410    1.000
    Tb9      Tb       0.26962    0.98542    0.68354    1.000
    O65      O        0.44300    0.95923    0.69600    1.000
    O66      O        0.29050    0.84715    0.72360    1.000
    H65      H        0.24490    0.83310    0.74250    1.000
    C145     C        0.56020    0.91172    0.68270    1.000
    O67      O        0.46450    0.81489    0.50210    1.000
    O68      O        0.63480    0.96517    0.70130    1.000
    O69      O        0.39930    0.80379    0.69830    1.000
    C146     C        0.79460    0.84991    0.63450    1.000
    C147     C        0.46650    0.89046    0.69560    1.000
    H66      H        0.39220    0.89900    0.70890    1.000
    O70      O        0.21030    0.94829    0.58670    1.000
    N25      N        0.88760    0.86751    0.61140    1.000
    O71      O        0.31979    0.78266    0.47323    1.000
    C148     C        0.48260    0.85699    0.68904    1.000
    C149     C        0.97069    0.84433    0.59912    1.000
    C150     C        0.27250    0.92866    0.54809    1.000
    C151     C        0.35799    0.80964    0.49953    1.000
    C152     C        0.16061    0.82775    0.54642    1.000
    H67      H        0.13460    0.80560    0.54460    1.000
    C153     C        0.12330    0.88533    0.57180    1.000
    H68      H        0.07260    0.90230    0.58900    1.000
    C154     C        0.38730    0.83308    0.70410    1.000
    O72      O        0.36430    0.93705    0.51410    1.000
    C155     C        0.58960    0.84448    0.66720    1.000
    H69      H        0.59880    0.82140    0.66090    1.000
    C156     C        0.68290    0.86493    0.65450    1.000
    C157     C        0.66790    0.89882    0.66160    1.000
    H70      H        0.73140    0.91320    0.65190    1.000
    C158     C        0.54460    0.94822    0.69360    1.000
    C159     C        0.23470    0.89313    0.54640    1.000
    C160     C        0.31120    0.86817    0.52330    1.000
    H71      H        0.38830    0.87340    0.50770    1.000
    C161     C        0.27430    0.83569    0.52320    1.000
    N26      N        0.93550    0.81517    0.61400    1.000
    N27      N        0.81640    0.81841    0.63880    1.000
    C162     C        0.08530    0.85279    0.57240    1.000
    H72      H        0.78910    0.79980    0.64410    1.000
    Tb10     Tb       0.26962    0.48542    0.18354    1.000
    O73      O        0.44300    0.45923    0.19600    1.000
    O74      O        0.29050    0.34715    0.22360    1.000
    H73      H        0.24490    0.33310    0.24250    1.000
    C163     C        0.56020    0.41172    0.18270    1.000
    O75      O        0.46450    0.31489    0.00210    1.000
    O76      O        0.63480    0.46517    0.20130    1.000
    O77      O        0.39930    0.30379    0.19830    1.000
    C164     C        0.79460    0.34991    0.13450    1.000
    C165     C        0.46650    0.39046    0.19560    1.000
    H74      H        0.39220    0.39900    0.20890    1.000
    O78      O        0.21030    0.44829    0.08670    1.000
    N28      N        0.88760    0.36751    0.11140    1.000
    O79      O        0.31979    0.28266    0.97323    1.000
    C166     C        0.48260    0.35699    0.18904    1.000
    C167     C        0.97069    0.34433    0.09912    1.000
    C168     C        0.27250    0.42866    0.04809    1.000
    C169     C        0.35799    0.30964    0.99953    1.000
    C170     C        0.16061    0.32775    0.04642    1.000
    H75      H        0.13460    0.30560    0.04460    1.000
    C171     C        0.12330    0.38533    0.07180    1.000
    H76      H        0.07260    0.40230    0.08900    1.000
    C172     C        0.38730    0.33308    0.20410    1.000
    O80      O        0.36430    0.43705    0.01410    1.000
    C173     C        0.58960    0.34448    0.16720    1.000
    H77      H        0.59880    0.32140    0.16090    1.000
    C174     C        0.68290    0.36493    0.15450    1.000
    C175     C        0.66790    0.39882    0.16160    1.000
    H78      H        0.73140    0.41320    0.15190    1.000
    C176     C        0.54460    0.44822    0.19360    1.000
    C177     C        0.23470    0.39313    0.04640    1.000
    C178     C        0.31120    0.36817    0.02330    1.000
    H79      H        0.38830    0.37340    0.00770    1.000
    C179     C        0.27430    0.33569    0.02320    1.000
    N29      N        0.93550    0.31517    0.11400    1.000
    N30      N        0.81640    0.31841    0.13880    1.000
    C180     C        0.08530    0.35279    0.07240    1.000
    H80      H        0.78910    0.29980    0.14410    1.000
    Tb11     Tb       0.76962    0.98542    0.18354    1.000
    O81      O        0.94300    0.95923    0.19600    1.000
    O82      O        0.79050    0.84715    0.22360    1.000
    H81      H        0.74490    0.83310    0.24250    1.000
    C181     C        0.06020    0.91172    0.18270    1.000
    O83      O        0.96450    0.81489    0.00210    1.000
    O84      O        0.13480    0.96517    0.20130    1.000
    O85      O        0.89930    0.80379    0.19830    1.000
    C182     C        0.29460    0.84991    0.13450    1.000
    C183     C        0.96650    0.89046    0.19560    1.000
    H82      H        0.89220    0.89900    0.20890    1.000
    O86      O        0.71030    0.94829    0.08670    1.000
    N31      N        0.38760    0.86751    0.11140    1.000
    O87      O        0.81979    0.78266    0.97323    1.000
    C184     C        0.98260    0.85699    0.18904    1.000
    C185     C        0.47069    0.84433    0.09912    1.000
    C186     C        0.77250    0.92866    0.04809    1.000
    C187     C        0.85799    0.80964    0.99953    1.000
    C188     C        0.66061    0.82775    0.04642    1.000
    H83      H        0.63460    0.80560    0.04460    1.000
    C189     C        0.62330    0.88533    0.07180    1.000
    H84      H        0.57260    0.90230    0.08900    1.000
    C190     C        0.88730    0.83308    0.20410    1.000
    O88      O        0.86430    0.93705    0.01410    1.000
    C191     C        0.08960    0.84448    0.16720    1.000
    H85      H        0.09880    0.82140    0.16090    1.000
    C192     C        0.18290    0.86493    0.15450    1.000
    C193     C        0.16790    0.89882    0.16160    1.000
    H86      H        0.23140    0.91320    0.15190    1.000
    C194     C        0.04460    0.94822    0.19360    1.000
    C195     C        0.73470    0.89313    0.04640    1.000
    C196     C        0.81120    0.86817    0.02330    1.000
    H87      H        0.88830    0.87340    0.00770    1.000
    C197     C        0.77430    0.83569    0.02320    1.000
    N32      N        0.43550    0.81517    0.11400    1.000
    N33      N        0.31640    0.81841    0.13880    1.000
    C198     C        0.58530    0.85279    0.07240    1.000
    H88      H        0.28910    0.79980    0.14410    1.000
    Tb12     Tb       0.76962    0.48542    0.68354    1.000
    O89      O        0.94300    0.45923    0.69600    1.000
    O90      O        0.79050    0.34715    0.72360    1.000
    H89      H        0.74490    0.33310    0.74250    1.000
    C199     C        0.06020    0.41172    0.68270    1.000
    O91      O        0.96450    0.31489    0.50210    1.000
    O92      O        0.13480    0.46517    0.70130    1.000
    O93      O        0.89930    0.30379    0.69830    1.000
    C200     C        0.29460    0.34991    0.63450    1.000
    C201     C        0.96650    0.39046    0.69560    1.000
    H90      H        0.89220    0.39900    0.70890    1.000
    O94      O        0.71030    0.44829    0.58670    1.000
    N34      N        0.38760    0.36751    0.61140    1.000
    O95      O        0.81979    0.28266    0.47323    1.000
    C202     C        0.98260    0.35699    0.68904    1.000
    C203     C        0.47069    0.34433    0.59912    1.000
    C204     C        0.77250    0.42866    0.54809    1.000
    C205     C        0.85799    0.30964    0.49953    1.000
    C206     C        0.66061    0.32775    0.54642    1.000
    H91      H        0.63460    0.30560    0.54460    1.000
    C207     C        0.62330    0.38533    0.57180    1.000
    H92      H        0.57260    0.40230    0.58900    1.000
    C208     C        0.88730    0.33308    0.70410    1.000
    O96      O        0.86430    0.43705    0.51410    1.000
    C209     C        0.08960    0.34448    0.66720    1.000
    H93      H        0.09880    0.32140    0.66090    1.000
    C210     C        0.18290    0.36493    0.65450    1.000
    C211     C        0.16790    0.39882    0.66160    1.000
    H94      H        0.23140    0.41320    0.65190    1.000
    C212     C        0.04460    0.44822    0.69360    1.000
    C213     C        0.73470    0.39313    0.54640    1.000
    C214     C        0.81120    0.36817    0.52330    1.000
    H95      H        0.88830    0.37340    0.50770    1.000
    C215     C        0.77430    0.33569    0.52320    1.000
    N35      N        0.43550    0.31517    0.61400    1.000
    N36      N        0.31640    0.31841    0.63880    1.000
    C216     C        0.58530    0.35279    0.57240    1.000
    H96      H        0.28910    0.29980    0.64410    1.000
    Tb13     Tb       0.23038    0.51458    0.68354    1.000
    O97      O        0.05700    0.54077    0.69600    1.000
    O98      O        0.20950    0.65285    0.72360    1.000
    H97      H        0.25510    0.66690    0.74250    1.000
    C217     C        0.93980    0.58828    0.68270    1.000
    O99      O        0.03550    0.68511    0.50210    1.000
    O100     O        0.86520    0.53483    0.70130    1.000
    O101     O        0.10070    0.69621    0.69830    1.000
    C218     C        0.70540    0.65009    0.63450    1.000
    C219     C        0.03350    0.60954    0.69560    1.000
    H98      H        0.10780    0.60100    0.70890    1.000
    O102     O        0.28970    0.55171    0.58670    1.000
    N37      N        0.61240    0.63249    0.61140    1.000
    O103     O        0.18021    0.71734    0.47323    1.000
    C220     C        0.01740    0.64301    0.68904    1.000
    C221     C        0.52931    0.65567    0.59912    1.000
    C222     C        0.22750    0.57134    0.54809    1.000
    C223     C        0.14201    0.69036    0.49953    1.000
    C224     C        0.33939    0.67225    0.54642    1.000
    H99      H        0.36540    0.69440    0.54460    1.000
    C225     C        0.37670    0.61467    0.57180    1.000
    H100     H        0.42740    0.59770    0.58900    1.000
    C226     C        0.11270    0.66692    0.70410    1.000
    O104     O        0.13570    0.56295    0.51410    1.000
    C227     C        0.91040    0.65552    0.66720    1.000
    H101     H        0.90120    0.67860    0.66090    1.000
    C228     C        0.81710    0.63507    0.65450    1.000
    C229     C        0.83210    0.60118    0.66160    1.000
    H102     H        0.76860    0.58680    0.65190    1.000
    C230     C        0.95540    0.55178    0.69360    1.000
    C231     C        0.26530    0.60687    0.54640    1.000
    C232     C        0.18880    0.63183    0.52330    1.000
    H103     H        0.11170    0.62660    0.50770    1.000
    C233     C        0.22570    0.66431    0.52320    1.000
    N38      N        0.56450    0.68483    0.61400    1.000
    N39      N        0.68360    0.68159    0.63880    1.000
    C234     C        0.41470    0.64721    0.57240    1.000
    H104     H        0.71090    0.70020    0.64410    1.000
    Tb14     Tb       0.23038    0.01458    0.18354    1.000
    O105     O        0.05700    0.04077    0.19600    1.000
    O106     O        0.20950    0.15285    0.22360    1.000
    H105     H        0.25510    0.16690    0.24250    1.000
    C235     C        0.93980    0.08828    0.18270    1.000
    O107     O        0.03550    0.18511    0.00210    1.000
    O108     O        0.86520    0.03483    0.20130    1.000
    O109     O        0.10070    0.19621    0.19830    1.000
    C236     C        0.70540    0.15009    0.13450    1.000
    C237     C        0.03350    0.10954    0.19560    1.000
    H106     H        0.10780    0.10100    0.20890    1.000
    O110     O        0.28970    0.05171    0.08670    1.000
    N40      N        0.61240    0.13249    0.11140    1.000
    O111     O        0.18021    0.21734    0.97323    1.000
    C238     C        0.01740    0.14301    0.18904    1.000
    C239     C        0.52931    0.15567    0.09912    1.000
    C240     C        0.22750    0.07134    0.04809    1.000
    C241     C        0.14201    0.19036    0.99953    1.000
    C242     C        0.33939    0.17225    0.04642    1.000
    H107     H        0.36540    0.19440    0.04460    1.000
    C243     C        0.37670    0.11467    0.07180    1.000
    H108     H        0.42740    0.09770    0.08900    1.000
    C244     C        0.11270    0.16692    0.20410    1.000
    O112     O        0.13570    0.06295    0.01410    1.000
    C245     C        0.91040    0.15552    0.16720    1.000
    H109     H        0.90120    0.17860    0.16090    1.000
    C246     C        0.81710    0.13507    0.15450    1.000
    C247     C        0.83210    0.10118    0.16160    1.000
    H110     H        0.76860    0.08680    0.15190    1.000
    C248     C        0.95540    0.05178    0.19360    1.000
    C249     C        0.26530    0.10687    0.04640    1.000
    C250     C        0.18880    0.13183    0.02330    1.000
    H111     H        0.11170    0.12660    0.00770    1.000
    C251     C        0.22570    0.16431    0.02320    1.000
    N41      N        0.56450    0.18483    0.11400    1.000
    N42      N        0.68360    0.18159    0.13880    1.000
    C252     C        0.41470    0.14721    0.07240    1.000
    H112     H        0.71090    0.20020    0.14410    1.000
    Tb15     Tb       0.73038    0.51458    0.18354    1.000
    O113     O        0.55700    0.54077    0.19600    1.000
    O114     O        0.70950    0.65285    0.22360    1.000
    H113     H        0.75510    0.66690    0.24250    1.000
    C253     C        0.43980    0.58828    0.18270    1.000
    O115     O        0.53550    0.68511    0.00210    1.000
    O116     O        0.36520    0.53483    0.20130    1.000
    O117     O        0.60070    0.69621    0.19830    1.000
    C254     C        0.20540    0.65009    0.13450    1.000
    C255     C        0.53350    0.60954    0.19560    1.000
    H114     H        0.60780    0.60100    0.20890    1.000
    O118     O        0.78970    0.55171    0.08670    1.000
    N43      N        0.11240    0.63249    0.11140    1.000
    O119     O        0.68021    0.71734    0.97323    1.000
    C256     C        0.51740    0.64301    0.18904    1.000
    C257     C        0.02931    0.65567    0.09912    1.000
    C258     C        0.72750    0.57134    0.04809    1.000
    C259     C        0.64201    0.69036    0.99953    1.000
    C260     C        0.83939    0.67225    0.04642    1.000
    H115     H        0.86540    0.69440    0.04460    1.000
    C261     C        0.87670    0.61467    0.07180    1.000
    H116     H        0.92740    0.59770    0.08900    1.000
    C262     C        0.61270    0.66692    0.20410    1.000
    O120     O        0.63570    0.56295    0.01410    1.000
    C263     C        0.41040    0.65552    0.16720    1.000
    H117     H        0.40120    0.67860    0.16090    1.000
    C264     C        0.31710    0.63507    0.15450    1.000
    C265     C        0.33210    0.60118    0.16160    1.000
    H118     H        0.26860    0.58680    0.15190    1.000
    C266     C        0.45540    0.55178    0.19360    1.000
    C267     C        0.76530    0.60687    0.04640    1.000
    C268     C        0.68880    0.63183    0.02330    1.000
    H119     H        0.61170    0.62660    0.00770    1.000
    C269     C        0.72570    0.66431    0.02320    1.000
    N44      N        0.06450    0.68483    0.11400    1.000
    N45      N        0.18360    0.68159    0.13880    1.000
    C270     C        0.91470    0.64721    0.07240    1.000
    H120     H        0.21090    0.70020    0.14410    1.000
    Tb16     Tb       0.73038    0.01458    0.68354    1.000
    O121     O        0.55700    0.04077    0.69600    1.000
    O122     O        0.70950    0.15285    0.72360    1.000
    H121     H        0.75510    0.16690    0.74250    1.000
    C271     C        0.43980    0.08828    0.68270    1.000
    O123     O        0.53550    0.18511    0.50210    1.000
    O124     O        0.36520    0.03483    0.70130    1.000
    O125     O        0.60070    0.19621    0.69830    1.000
    C272     C        0.20540    0.15009    0.63450    1.000
    C273     C        0.53350    0.10954    0.69560    1.000
    H122     H        0.60780    0.10100    0.70890    1.000
    O126     O        0.78970    0.05171    0.58670    1.000
    N46      N        0.11240    0.13249    0.61140    1.000
    O127     O        0.68021    0.21734    0.47323    1.000
    C274     C        0.51740    0.14301    0.68904    1.000
    C275     C        0.02931    0.15567    0.59912    1.000
    C276     C        0.72750    0.07134    0.54809    1.000
    C277     C        0.64201    0.19036    0.49953    1.000
    C278     C        0.83939    0.17225    0.54642    1.000
    H123     H        0.86540    0.19440    0.54460    1.000
    C279     C        0.87670    0.11467    0.57180    1.000
    H124     H        0.92740    0.09770    0.58900    1.000
    C280     C        0.61270    0.16692    0.70410    1.000
    O128     O        0.63570    0.06295    0.51410    1.000
    C281     C        0.41040    0.15552    0.66720    1.000
    H125     H        0.40120    0.17860    0.66090    1.000
    C282     C        0.31710    0.13507    0.65450    1.000
    C283     C        0.33210    0.10118    0.66160    1.000
    H126     H        0.26860    0.08680    0.65190    1.000
    C284     C        0.45540    0.05178    0.69360    1.000
    C285     C        0.76530    0.10687    0.54640    1.000
    C286     C        0.68880    0.13183    0.52330    1.000
    H127     H        0.61170    0.12660    0.50770    1.000
    C287     C        0.72570    0.16431    0.52320    1.000
    N47      N        0.06450    0.18483    0.61400    1.000
    N48      N        0.18360    0.18159    0.63880    1.000
    C288     C        0.91470    0.14721    0.57240    1.000
    H128     H        0.21090    0.20020    0.64410    1.000
