# CIF file generated by openbabel 3.1.0, see https://openbabel.org
data_I
_chemical_name_common 'image0'
_cell_length_a 36.8116
_cell_length_b 14.6974
_cell_length_c 30.6993
_cell_angle_alpha 90
_cell_angle_beta 103.07
_cell_angle_gamma 90
_space_group_name_H-M_alt 'P 1'
_space_group_name_Hall 'P 1'
loop_
    _symmetry_equiv_pos_as_xyz
    x,y,z
loop_
    _atom_site_label
    _atom_site_type_symbol
    _atom_site_fract_x
    _atom_site_fract_y
    _atom_site_fract_z
    _atom_site_occupancy
    I1       I        0.35982    0.60724    0.49890    1.000
    Zn1      Zn       0.38097    0.59965    0.42624    1.000
    I2       I        0.39957    0.73548    0.38478    1.000
    N1       N        0.33845    0.53150    0.38240    1.000
    N2       N        0.42483    0.51090    0.43390    1.000
    C1       C        0.31640    0.57530    0.34800    1.000
    C2       C        0.33130    0.44560    0.39020    1.000
    H1       H        0.32190    0.63660    0.34210    1.000
    C3       C        0.28610    0.53420    0.32110    1.000
    C4       C        0.30130    0.39840    0.36380    1.000
    H2       H        0.34720    0.41490    0.41440    1.000
    H3       H        0.27070    0.56700    0.29720    1.000
    C5       C        0.27799    0.44380    0.32910    1.000
    H4       H        0.29700    0.33640    0.36980    1.000
    C6       C        0.24510    0.39930    0.30040    1.000
    N3       N        0.22368    0.45130    0.26900    1.000
    N4       N        0.23838    0.31160    0.30848    1.000
    C7       C        0.19250    0.41190    0.24630    1.000
    C8       C        0.20760    0.27820    0.28130    1.000
    C9       C        0.16660    0.46640    0.21240    1.000
    N5       N        0.18327    0.32570    0.25120    1.000
    C10      C        0.19891    0.17960    0.28390    1.000
    C11      C        0.17530    0.55350    0.20030    1.000
    C12      C        0.13210    0.42950    0.19240    1.000
    C13      C        0.22350    0.11910    0.31040    1.000
    C14      C        0.16660    0.14480    0.25680    1.000
    C15      C        0.14990    0.59940    0.16730    1.000
    H5       H        0.19820    0.58120    0.21440    1.000
    H6       H        0.12520    0.37070    0.20040    1.000
    C16      C        0.10830    0.48060    0.16050    1.000
    C17      C        0.21420    0.02760    0.30800    1.000
    H7       H        0.24590    0.13990    0.32950    1.000
    H8       H        0.14940    0.18450    0.23830    1.000
    C18      C        0.15930    0.05360    0.25660    1.000
    N6       N        0.11742    0.56350    0.14760    1.000
    H9       H        0.15610    0.65840    0.15850    1.000
    H10      H        0.08440    0.45640    0.14710    1.000
    N7       N        0.18323    0.99460    0.28180    1.000
    H11      H        0.23090    0.98620    0.32620    1.000
    H12      H        0.13680    0.03120    0.23820    1.000
    Zn2      Zn       0.07746    0.62677    0.09806    1.000
    Zn3      Zn       0.16959    0.85710    0.27594    1.000
    I3       I        0.02060    0.65900    0.12890    1.000
    I4       I        0.10740    0.74600    0.05850    1.000
    N8       N        0.06742    0.51500    0.05460    1.000
    N9       N        0.13991    0.84210    0.32470    1.000
    I5       I        0.12079    0.83501    0.20039    1.000
    I6       I        0.22729    0.75860    0.29347    1.000
    C19      C        0.11170    0.89670    0.32590    1.000
    C20      C        0.14700    0.77570    0.35560    1.000
    C21      C        0.08760    0.88420    0.35410    1.000
    H13      H        0.10760    0.94750    0.30630    1.000
    H14      H        0.16840    0.73850    0.35700    1.000
    C22      C        0.12490    0.75920    0.38520    1.000
    H15      H        0.06700    0.92380    0.35270    1.000
    C23      C        0.09410    0.81340    0.38400    1.000
    H16      H        0.13070    0.71100    0.40620    1.000
    C24      C        0.06870    0.79700    0.41450    1.000
    N10      N        0.07510    0.72450    0.44150    1.000
    N11      N        0.04095    0.85680    0.41300    1.000
    C25      C        0.05310    0.71690    0.46980    1.000
    C26      C        0.01994    0.84140    0.44190    1.000
    C27      C        0.05800    0.63640    0.49980    1.000
    N12      N        0.02541    0.77510    0.47270    1.000
    C28      C        0.98729    0.90030    0.44000    1.000
    C29      C        0.03080    0.61200    0.52240    1.000
    C30      C        0.09020    0.58430    0.50560    1.000
    C31      C        0.97110    0.91180    0.47600    1.000
    C32      C        0.97110    0.94440    0.40050    1.000
    H17      H        0.00870    0.64700    0.51930    1.000
    C33      C        0.03660    0.53600    0.54940    1.000
    C34      C        0.09350    0.50860    0.53300    1.000
    H18      H        0.10960    0.60030    0.49100    1.000
    H19      H        0.98080    0.88130    0.50340    1.000
    C35      C        0.94030    0.96860    0.47150    1.000
    H20      H        0.98110    0.93790    0.37470    1.000
    C36      C        0.94000    0.99790    0.39920    1.000
    H21      H        0.01810    0.51920    0.56500    1.000
    H22      H        0.11520    0.47200    0.53650    1.000
    H23      H        0.92980    0.97750    0.49670    1.000
    H24      H        0.92890    0.02710    0.37180    1.000
    I7       I        0.02058    0.64450    0.13063    1.000
    I8       I        0.10972    0.74110    0.05806    1.000
    I9       I        0.62910    0.33960    0.20890    1.000
    I10      I        0.73380    0.26860    0.30350    1.000
    I11      I        0.85982    0.10724    0.49890    1.000
    Zn4      Zn       0.88097    0.09965    0.42624    1.000
    I12      I        0.89957    0.23548    0.38478    1.000
    N13      N        0.83845    0.03150    0.38240    1.000
    N14      N        0.92483    0.01090    0.43390    1.000
    C37      C        0.81640    0.07530    0.34800    1.000
    C38      C        0.83130    0.94560    0.39020    1.000
    H25      H        0.82190    0.13660    0.34210    1.000
    C39      C        0.78610    0.03420    0.32110    1.000
    C40      C        0.80130    0.89840    0.36380    1.000
    H26      H        0.84720    0.91490    0.41440    1.000
    H27      H        0.77070    0.06700    0.29720    1.000
    C41      C        0.77799    0.94380    0.32910    1.000
    H28      H        0.79700    0.83640    0.36980    1.000
    C42      C        0.74510    0.89930    0.30040    1.000
    N15      N        0.72368    0.95130    0.26900    1.000
    N16      N        0.73838    0.81160    0.30848    1.000
    C43      C        0.69250    0.91190    0.24630    1.000
    C44      C        0.70760    0.77820    0.28130    1.000
    C45      C        0.66660    0.96640    0.21240    1.000
    N17      N        0.68327    0.82570    0.25120    1.000
    C46      C        0.69891    0.67960    0.28390    1.000
    C47      C        0.67530    0.05350    0.20030    1.000
    C48      C        0.63210    0.92950    0.19240    1.000
    C49      C        0.72350    0.61910    0.31040    1.000
    C50      C        0.66660    0.64480    0.25680    1.000
    C51      C        0.64990    0.09940    0.16730    1.000
    H29      H        0.69820    0.08120    0.21440    1.000
    H30      H        0.62520    0.87070    0.20040    1.000
    C52      C        0.60830    0.98060    0.16050    1.000
    C53      C        0.71420    0.52760    0.30800    1.000
    H31      H        0.74590    0.63990    0.32950    1.000
    H32      H        0.64940    0.68450    0.23830    1.000
    C54      C        0.65930    0.55360    0.25660    1.000
    N18      N        0.61742    0.06350    0.14760    1.000
    H33      H        0.65610    0.15840    0.15850    1.000
    H34      H        0.58440    0.95640    0.14710    1.000
    N19      N        0.68323    0.49460    0.28180    1.000
    H35      H        0.73090    0.48620    0.32620    1.000
    H36      H        0.63680    0.53120    0.23820    1.000
    Zn5      Zn       0.57746    0.12677    0.09806    1.000
    Zn6      Zn       0.66959    0.35710    0.27594    1.000
    I13      I        0.52060    0.15900    0.12890    1.000
    I14      I        0.60740    0.24600    0.05850    1.000
    N20      N        0.56742    0.01500    0.05460    1.000
    N21      N        0.63991    0.34210    0.32470    1.000
    I15      I        0.62079    0.33501    0.20039    1.000
    I16      I        0.72729    0.25860    0.29347    1.000
    C55      C        0.61170    0.39670    0.32590    1.000
    C56      C        0.64700    0.27570    0.35560    1.000
    C57      C        0.58760    0.38420    0.35410    1.000
    H37      H        0.60760    0.44750    0.30630    1.000
    H38      H        0.66840    0.23850    0.35700    1.000
    C58      C        0.62490    0.25920    0.38520    1.000
    H39      H        0.56700    0.42380    0.35270    1.000
    C59      C        0.59410    0.31340    0.38400    1.000
    H40      H        0.63070    0.21100    0.40620    1.000
    C60      C        0.56870    0.29700    0.41450    1.000
    N22      N        0.57510    0.22450    0.44150    1.000
    N23      N        0.54095    0.35680    0.41300    1.000
    C61      C        0.55310    0.21690    0.46980    1.000
    C62      C        0.51994    0.34140    0.44190    1.000
    C63      C        0.55800    0.13640    0.49980    1.000
    N24      N        0.52541    0.27510    0.47270    1.000
    C64      C        0.48729    0.40030    0.44000    1.000
    C65      C        0.53080    0.11200    0.52240    1.000
    C66      C        0.59020    0.08430    0.50560    1.000
    C67      C        0.47110    0.41180    0.47600    1.000
    C68      C        0.47110    0.44440    0.40050    1.000
    H41      H        0.50870    0.14700    0.51930    1.000
    C69      C        0.53660    0.03600    0.54940    1.000
    C70      C        0.59350    0.00860    0.53300    1.000
    H42      H        0.60960    0.10030    0.49100    1.000
    H43      H        0.48080    0.38130    0.50340    1.000
    C71      C        0.44030    0.46860    0.47150    1.000
    H44      H        0.48110    0.43790    0.37470    1.000
    C72      C        0.44000    0.49790    0.39920    1.000
    H45      H        0.51810    0.01920    0.56500    1.000
    H46      H        0.61520    0.97200    0.53650    1.000
    H47      H        0.42980    0.47750    0.49670    1.000
    H48      H        0.42890    0.52710    0.37180    1.000
    I17      I        0.52058    0.14450    0.13063    1.000
    I18      I        0.60972    0.24110    0.05806    1.000
    I19      I        0.12910    0.83960    0.20890    1.000
    I20      I        0.23380    0.76860    0.30350    1.000
    I21      I        0.35982    0.39276    0.99890    1.000
    Zn7      Zn       0.38097    0.40035    0.92624    1.000
    I22      I        0.39957    0.26452    0.88478    1.000
    N25      N        0.33845    0.46850    0.88240    1.000
    N26      N        0.42483    0.48910    0.93390    1.000
    C73      C        0.31640    0.42470    0.84800    1.000
    C74      C        0.33130    0.55440    0.89020    1.000
    H49      H        0.32190    0.36340    0.84210    1.000
    C75      C        0.28610    0.46580    0.82110    1.000
    C76      C        0.30130    0.60160    0.86380    1.000
    H50      H        0.34720    0.58510    0.91440    1.000
    H51      H        0.27070    0.43300    0.79720    1.000
    C77      C        0.27799    0.55620    0.82910    1.000
    H52      H        0.29700    0.66360    0.86980    1.000
    C78      C        0.24510    0.60070    0.80040    1.000
    N27      N        0.22368    0.54870    0.76900    1.000
    N28      N        0.23838    0.68840    0.80848    1.000
    C79      C        0.19250    0.58810    0.74630    1.000
    C80      C        0.20760    0.72180    0.78130    1.000
    C81      C        0.16660    0.53360    0.71240    1.000
    N29      N        0.18327    0.67430    0.75120    1.000
    C82      C        0.19891    0.82040    0.78390    1.000
    C83      C        0.17530    0.44650    0.70030    1.000
    C84      C        0.13210    0.57050    0.69240    1.000
    C85      C        0.22350    0.88090    0.81040    1.000
    C86      C        0.16660    0.85520    0.75680    1.000
    C87      C        0.14990    0.40060    0.66730    1.000
    H53      H        0.19820    0.41880    0.71440    1.000
    H54      H        0.12520    0.62930    0.70040    1.000
    C88      C        0.10830    0.51940    0.66050    1.000
    C89      C        0.21420    0.97240    0.80800    1.000
    H55      H        0.24590    0.86010    0.82950    1.000
    H56      H        0.14940    0.81550    0.73830    1.000
    C90      C        0.15930    0.94640    0.75660    1.000
    N30      N        0.11742    0.43650    0.64760    1.000
    H57      H        0.15610    0.34160    0.65850    1.000
    H58      H        0.08440    0.54360    0.64710    1.000
    N31      N        0.18323    0.00540    0.78180    1.000
    H59      H        0.23090    0.01380    0.82620    1.000
    H60      H        0.13680    0.96880    0.73820    1.000
    Zn8      Zn       0.07746    0.37323    0.59806    1.000
    Zn9      Zn       0.16959    0.14290    0.77594    1.000
    I23      I        0.02060    0.34100    0.62890    1.000
    I24      I        0.10740    0.25400    0.55850    1.000
    N32      N        0.06742    0.48500    0.55460    1.000
    N33      N        0.13991    0.15790    0.82470    1.000
    I25      I        0.12079    0.16499    0.70039    1.000
    I26      I        0.22729    0.24140    0.79347    1.000
    C91      C        0.11170    0.10330    0.82590    1.000
    C92      C        0.14700    0.22430    0.85560    1.000
    C93      C        0.08760    0.11580    0.85410    1.000
    H61      H        0.10760    0.05250    0.80630    1.000
    H62      H        0.16840    0.26150    0.85700    1.000
    C94      C        0.12490    0.24080    0.88520    1.000
    H63      H        0.06700    0.07620    0.85270    1.000
    C95      C        0.09410    0.18660    0.88400    1.000
    H64      H        0.13070    0.28900    0.90620    1.000
    C96      C        0.06870    0.20300    0.91450    1.000
    N34      N        0.07510    0.27550    0.94150    1.000
    N35      N        0.04095    0.14320    0.91300    1.000
    C97      C        0.05310    0.28310    0.96980    1.000
    C98      C        0.01994    0.15860    0.94190    1.000
    C99      C        0.05800    0.36360    0.99980    1.000
    N36      N        0.02541    0.22490    0.97270    1.000
    C100     C        0.98729    0.09970    0.94000    1.000
    C101     C        0.03080    0.38800    0.02240    1.000
    C102     C        0.09020    0.41570    0.00560    1.000
    C103     C        0.97110    0.08820    0.97600    1.000
    C104     C        0.97110    0.05560    0.90050    1.000
    H65      H        0.00870    0.35300    0.01930    1.000
    C105     C        0.03660    0.46400    0.04940    1.000
    C106     C        0.09350    0.49140    0.03300    1.000
    H66      H        0.10960    0.39970    0.99100    1.000
    H67      H        0.98080    0.11870    0.00340    1.000
    C107     C        0.94030    0.03140    0.97150    1.000
    H68      H        0.98110    0.06210    0.87470    1.000
    C108     C        0.94000    0.00210    0.89920    1.000
    H69      H        0.01810    0.48080    0.06500    1.000
    H70      H        0.11520    0.52800    0.03650    1.000
    H71      H        0.92980    0.02250    0.99670    1.000
    H72      H        0.92890    0.97290    0.87180    1.000
    I27      I        0.02058    0.35550    0.63063    1.000
    I28      I        0.10972    0.25890    0.55806    1.000
    I29      I        0.62910    0.66040    0.70890    1.000
    I30      I        0.73380    0.73140    0.80350    1.000
    I31      I        0.85982    0.89276    0.99890    1.000
    Zn10     Zn       0.88097    0.90035    0.92624    1.000
    I32      I        0.89957    0.76452    0.88478    1.000
    N37      N        0.83845    0.96850    0.88240    1.000
    N38      N        0.92483    0.98910    0.93390    1.000
    C109     C        0.81640    0.92470    0.84800    1.000
    C110     C        0.83130    0.05440    0.89020    1.000
    H73      H        0.82190    0.86340    0.84210    1.000
    C111     C        0.78610    0.96580    0.82110    1.000
    C112     C        0.80130    0.10160    0.86380    1.000
    H74      H        0.84720    0.08510    0.91440    1.000
    H75      H        0.77070    0.93300    0.79720    1.000
    C113     C        0.77799    0.05620    0.82910    1.000
    H76      H        0.79700    0.16360    0.86980    1.000
    C114     C        0.74510    0.10070    0.80040    1.000
    N39      N        0.72368    0.04870    0.76900    1.000
    N40      N        0.73838    0.18840    0.80848    1.000
    C115     C        0.69250    0.08810    0.74630    1.000
    C116     C        0.70760    0.22180    0.78130    1.000
    C117     C        0.66660    0.03360    0.71240    1.000
    N41      N        0.68327    0.17430    0.75120    1.000
    C118     C        0.69891    0.32040    0.78390    1.000
    C119     C        0.67530    0.94650    0.70030    1.000
    C120     C        0.63210    0.07050    0.69240    1.000
    C121     C        0.72350    0.38090    0.81040    1.000
    C122     C        0.66660    0.35520    0.75680    1.000
    C123     C        0.64990    0.90060    0.66730    1.000
    H77      H        0.69820    0.91880    0.71440    1.000
    H78      H        0.62520    0.12930    0.70040    1.000
    C124     C        0.60830    0.01940    0.66050    1.000
    C125     C        0.71420    0.47240    0.80800    1.000
    H79      H        0.74590    0.36010    0.82950    1.000
    H80      H        0.64940    0.31550    0.73830    1.000
    C126     C        0.65930    0.44640    0.75660    1.000
    N42      N        0.61742    0.93650    0.64760    1.000
    H81      H        0.65610    0.84160    0.65850    1.000
    H82      H        0.58440    0.04360    0.64710    1.000
    N43      N        0.68323    0.50540    0.78180    1.000
    H83      H        0.73090    0.51380    0.82620    1.000
    H84      H        0.63680    0.46880    0.73820    1.000
    Zn11     Zn       0.57746    0.87323    0.59806    1.000
    Zn12     Zn       0.66959    0.64290    0.77594    1.000
    I33      I        0.52060    0.84100    0.62890    1.000
    I34      I        0.60740    0.75400    0.55850    1.000
    N44      N        0.56742    0.98500    0.55460    1.000
    N45      N        0.63991    0.65790    0.82470    1.000
    I35      I        0.62079    0.66499    0.70039    1.000
    I36      I        0.72729    0.74140    0.79347    1.000
    C127     C        0.61170    0.60330    0.82590    1.000
    C128     C        0.64700    0.72430    0.85560    1.000
    C129     C        0.58760    0.61580    0.85410    1.000
    H85      H        0.60760    0.55250    0.80630    1.000
    H86      H        0.66840    0.76150    0.85700    1.000
    C130     C        0.62490    0.74080    0.88520    1.000
    H87      H        0.56700    0.57620    0.85270    1.000
    C131     C        0.59410    0.68660    0.88400    1.000
    H88      H        0.63070    0.78900    0.90620    1.000
    C132     C        0.56870    0.70300    0.91450    1.000
    N46      N        0.57510    0.77550    0.94150    1.000
    N47      N        0.54095    0.64320    0.91300    1.000
    C133     C        0.55310    0.78310    0.96980    1.000
    C134     C        0.51994    0.65860    0.94190    1.000
    C135     C        0.55800    0.86360    0.99980    1.000
    N48      N        0.52541    0.72490    0.97270    1.000
    C136     C        0.48729    0.59970    0.94000    1.000
    C137     C        0.53080    0.88800    0.02240    1.000
    C138     C        0.59020    0.91570    0.00560    1.000
    C139     C        0.47110    0.58820    0.97600    1.000
    C140     C        0.47110    0.55560    0.90050    1.000
    H89      H        0.50870    0.85300    0.01930    1.000
    C141     C        0.53660    0.96400    0.04940    1.000
    C142     C        0.59350    0.99140    0.03300    1.000
    H90      H        0.60960    0.89970    0.99100    1.000
    H91      H        0.48080    0.61870    0.00340    1.000
    C143     C        0.44030    0.53140    0.97150    1.000
    H92      H        0.48110    0.56210    0.87470    1.000
    C144     C        0.44000    0.50210    0.89920    1.000
    H93      H        0.51810    0.98080    0.06500    1.000
    H94      H        0.61520    0.02800    0.03650    1.000
    H95      H        0.42980    0.52250    0.99670    1.000
    H96      H        0.42890    0.47290    0.87180    1.000
    I37      I        0.52058    0.85550    0.63063    1.000
    I38      I        0.60972    0.75890    0.55806    1.000
    I39      I        0.12910    0.16040    0.70890    1.000
    I40      I        0.23380    0.23140    0.80350    1.000
    I41      I        0.64018    0.60724    0.00110    1.000
    Zn13     Zn       0.61903    0.59965    0.07376    1.000
    I42      I        0.60043    0.73548    0.11522    1.000
    N49      N        0.66155    0.53150    0.11760    1.000
    N50      N        0.57517    0.51090    0.06610    1.000
    C145     C        0.68360    0.57530    0.15200    1.000
    C146     C        0.66870    0.44560    0.10980    1.000
    H97      H        0.67810    0.63660    0.15790    1.000
    C147     C        0.71390    0.53420    0.17890    1.000
    C148     C        0.69870    0.39840    0.13620    1.000
    H98      H        0.65280    0.41490    0.08560    1.000
    H99      H        0.72930    0.56700    0.20280    1.000
    C149     C        0.72201    0.44380    0.17090    1.000
    H100     H        0.70300    0.33640    0.13020    1.000
    C150     C        0.75490    0.39930    0.19960    1.000
    N51      N        0.77632    0.45130    0.23100    1.000
    N52      N        0.76162    0.31160    0.19152    1.000
    C151     C        0.80750    0.41190    0.25370    1.000
    C152     C        0.79240    0.27820    0.21870    1.000
    C153     C        0.83340    0.46640    0.28760    1.000
    N53      N        0.81673    0.32570    0.24880    1.000
    C154     C        0.80109    0.17960    0.21610    1.000
    C155     C        0.82470    0.55350    0.29970    1.000
    C156     C        0.86790    0.42950    0.30760    1.000
    C157     C        0.77650    0.11910    0.18960    1.000
    C158     C        0.83340    0.14480    0.24320    1.000
    C159     C        0.85010    0.59940    0.33270    1.000
    H101     H        0.80180    0.58120    0.28560    1.000
    H102     H        0.87480    0.37070    0.29960    1.000
    C160     C        0.89170    0.48060    0.33950    1.000
    C161     C        0.78580    0.02760    0.19200    1.000
    H103     H        0.75410    0.13990    0.17050    1.000
    H104     H        0.85060    0.18450    0.26170    1.000
    C162     C        0.84070    0.05360    0.24340    1.000
    N54      N        0.88258    0.56350    0.35240    1.000
    H105     H        0.84390    0.65840    0.34150    1.000
    H106     H        0.91560    0.45640    0.35290    1.000
    N55      N        0.81677    0.99460    0.21820    1.000
    H107     H        0.76910    0.98620    0.17380    1.000
    H108     H        0.86320    0.03120    0.26180    1.000
    Zn14     Zn       0.92254    0.62677    0.40194    1.000
    Zn15     Zn       0.83041    0.85710    0.22406    1.000
    I43      I        0.97940    0.65900    0.37110    1.000
    I44      I        0.89260    0.74600    0.44150    1.000
    N56      N        0.93258    0.51500    0.44540    1.000
    N57      N        0.86009    0.84210    0.17530    1.000
    I45      I        0.87921    0.83501    0.29961    1.000
    I46      I        0.77271    0.75860    0.20653    1.000
    C163     C        0.88830    0.89670    0.17410    1.000
    C164     C        0.85300    0.77570    0.14440    1.000
    C165     C        0.91240    0.88420    0.14590    1.000
    H109     H        0.89240    0.94750    0.19370    1.000
    H110     H        0.83160    0.73850    0.14300    1.000
    C166     C        0.87510    0.75920    0.11480    1.000
    H111     H        0.93300    0.92380    0.14730    1.000
    C167     C        0.90590    0.81340    0.11600    1.000
    H112     H        0.86930    0.71100    0.09380    1.000
    C168     C        0.93130    0.79700    0.08550    1.000
    N58      N        0.92490    0.72450    0.05850    1.000
    N59      N        0.95905    0.85680    0.08700    1.000
    C169     C        0.94690    0.71690    0.03020    1.000
    C170     C        0.98006    0.84140    0.05810    1.000
    C171     C        0.94200    0.63640    0.00020    1.000
    N60      N        0.97459    0.77510    0.02730    1.000
    C172     C        0.01271    0.90030    0.06000    1.000
    C173     C        0.96920    0.61200    0.97760    1.000
    C174     C        0.90980    0.58430    0.99440    1.000
    C175     C        0.02890    0.91180    0.02400    1.000
    C176     C        0.02890    0.94440    0.09950    1.000
    H113     H        0.99130    0.64700    0.98070    1.000
    C177     C        0.96340    0.53600    0.95060    1.000
    C178     C        0.90650    0.50860    0.96700    1.000
    H114     H        0.89040    0.60030    0.00900    1.000
    H115     H        0.01920    0.88130    0.99660    1.000
    C179     C        0.05970    0.96860    0.02850    1.000
    H116     H        0.01890    0.93790    0.12530    1.000
    C180     C        0.06000    0.99790    0.10080    1.000
    H117     H        0.98190    0.51920    0.93500    1.000
    H118     H        0.88480    0.47200    0.96350    1.000
    H119     H        0.07020    0.97750    0.00330    1.000
    H120     H        0.07110    0.02710    0.12820    1.000
    I47      I        0.97942    0.64450    0.36937    1.000
    I48      I        0.89028    0.74110    0.44194    1.000
    I49      I        0.37090    0.33960    0.29110    1.000
    I50      I        0.26620    0.26860    0.19650    1.000
    I51      I        0.14018    0.10724    0.00110    1.000
    Zn16     Zn       0.11903    0.09965    0.07376    1.000
    I52      I        0.10043    0.23548    0.11522    1.000
    N61      N        0.16155    0.03150    0.11760    1.000
    N62      N        0.07517    0.01090    0.06610    1.000
    C181     C        0.18360    0.07530    0.15200    1.000
    C182     C        0.16870    0.94560    0.10980    1.000
    H121     H        0.17810    0.13660    0.15790    1.000
    C183     C        0.21390    0.03420    0.17890    1.000
    C184     C        0.19870    0.89840    0.13620    1.000
    H122     H        0.15280    0.91490    0.08560    1.000
    H123     H        0.22930    0.06700    0.20280    1.000
    C185     C        0.22201    0.94380    0.17090    1.000
    H124     H        0.20300    0.83640    0.13020    1.000
    C186     C        0.25490    0.89930    0.19960    1.000
    N63      N        0.27632    0.95130    0.23100    1.000
    N64      N        0.26162    0.81160    0.19152    1.000
    C187     C        0.30750    0.91190    0.25370    1.000
    C188     C        0.29240    0.77820    0.21870    1.000
    C189     C        0.33340    0.96640    0.28760    1.000
    N65      N        0.31673    0.82570    0.24880    1.000
    C190     C        0.30109    0.67960    0.21610    1.000
    C191     C        0.32470    0.05350    0.29970    1.000
    C192     C        0.36790    0.92950    0.30760    1.000
    C193     C        0.27650    0.61910    0.18960    1.000
    C194     C        0.33340    0.64480    0.24320    1.000
    C195     C        0.35010    0.09940    0.33270    1.000
    H125     H        0.30180    0.08120    0.28560    1.000
    H126     H        0.37480    0.87070    0.29960    1.000
    C196     C        0.39170    0.98060    0.33950    1.000
    C197     C        0.28580    0.52760    0.19200    1.000
    H127     H        0.25410    0.63990    0.17050    1.000
    H128     H        0.35060    0.68450    0.26170    1.000
    C198     C        0.34070    0.55360    0.24340    1.000
    N66      N        0.38258    0.06350    0.35240    1.000
    H129     H        0.34390    0.15840    0.34150    1.000
    H130     H        0.41560    0.95640    0.35290    1.000
    N67      N        0.31677    0.49460    0.21820    1.000
    H131     H        0.26910    0.48620    0.17380    1.000
    H132     H        0.36320    0.53120    0.26180    1.000
    Zn17     Zn       0.42254    0.12677    0.40194    1.000
    Zn18     Zn       0.33041    0.35710    0.22406    1.000
    I53      I        0.47940    0.15900    0.37110    1.000
    I54      I        0.39260    0.24600    0.44150    1.000
    N68      N        0.43258    0.01500    0.44540    1.000
    N69      N        0.36009    0.34210    0.17530    1.000
    I55      I        0.37921    0.33501    0.29961    1.000
    I56      I        0.27271    0.25860    0.20653    1.000
    C199     C        0.38830    0.39670    0.17410    1.000
    C200     C        0.35300    0.27570    0.14440    1.000
    C201     C        0.41240    0.38420    0.14590    1.000
    H133     H        0.39240    0.44750    0.19370    1.000
    H134     H        0.33160    0.23850    0.14300    1.000
    C202     C        0.37510    0.25920    0.11480    1.000
    H135     H        0.43300    0.42380    0.14730    1.000
    C203     C        0.40590    0.31340    0.11600    1.000
    H136     H        0.36930    0.21100    0.09380    1.000
    C204     C        0.43130    0.29700    0.08550    1.000
    N70      N        0.42490    0.22450    0.05850    1.000
    N71      N        0.45905    0.35680    0.08700    1.000
    C205     C        0.44690    0.21690    0.03020    1.000
    C206     C        0.48006    0.34140    0.05810    1.000
    C207     C        0.44200    0.13640    0.00020    1.000
    N72      N        0.47459    0.27510    0.02730    1.000
    C208     C        0.51271    0.40030    0.06000    1.000
    C209     C        0.46920    0.11200    0.97760    1.000
    C210     C        0.40980    0.08430    0.99440    1.000
    C211     C        0.52890    0.41180    0.02400    1.000
    C212     C        0.52890    0.44440    0.09950    1.000
    H137     H        0.49130    0.14700    0.98070    1.000
    C213     C        0.46340    0.03600    0.95060    1.000
    C214     C        0.40650    0.00860    0.96700    1.000
    H138     H        0.39040    0.10030    0.00900    1.000
    H139     H        0.51920    0.38130    0.99660    1.000
    C215     C        0.55970    0.46860    0.02850    1.000
    H140     H        0.51890    0.43790    0.12530    1.000
    C216     C        0.56000    0.49790    0.10080    1.000
    H141     H        0.48190    0.01920    0.93500    1.000
    H142     H        0.38480    0.97200    0.96350    1.000
    H143     H        0.57020    0.47750    0.00330    1.000
    H144     H        0.57110    0.52710    0.12820    1.000
    I57      I        0.47942    0.14450    0.36937    1.000
    I58      I        0.39028    0.24110    0.44194    1.000
    I59      I        0.87090    0.83960    0.29110    1.000
    I60      I        0.76620    0.76860    0.19650    1.000
    I61      I        0.64018    0.39276    0.50110    1.000
    Zn19     Zn       0.61903    0.40035    0.57376    1.000
    I62      I        0.60043    0.26452    0.61522    1.000
    N73      N        0.66155    0.46850    0.61760    1.000
    N74      N        0.57517    0.48910    0.56610    1.000
    C217     C        0.68360    0.42470    0.65200    1.000
    C218     C        0.66870    0.55440    0.60980    1.000
    H145     H        0.67810    0.36340    0.65790    1.000
    C219     C        0.71390    0.46580    0.67890    1.000
    C220     C        0.69870    0.60160    0.63620    1.000
    H146     H        0.65280    0.58510    0.58560    1.000
    H147     H        0.72930    0.43300    0.70280    1.000
    C221     C        0.72201    0.55620    0.67090    1.000
    H148     H        0.70300    0.66360    0.63020    1.000
    C222     C        0.75490    0.60070    0.69960    1.000
    N75      N        0.77632    0.54870    0.73100    1.000
    N76      N        0.76162    0.68840    0.69152    1.000
    C223     C        0.80750    0.58810    0.75370    1.000
    C224     C        0.79240    0.72180    0.71870    1.000
    C225     C        0.83340    0.53360    0.78760    1.000
    N77      N        0.81673    0.67430    0.74880    1.000
    C226     C        0.80109    0.82040    0.71610    1.000
    C227     C        0.82470    0.44650    0.79970    1.000
    C228     C        0.86790    0.57050    0.80760    1.000
    C229     C        0.77650    0.88090    0.68960    1.000
    C230     C        0.83340    0.85520    0.74320    1.000
    C231     C        0.85010    0.40060    0.83270    1.000
    H149     H        0.80180    0.41880    0.78560    1.000
    H150     H        0.87480    0.62930    0.79960    1.000
    C232     C        0.89170    0.51940    0.83950    1.000
    C233     C        0.78580    0.97240    0.69200    1.000
    H151     H        0.75410    0.86010    0.67050    1.000
    H152     H        0.85060    0.81550    0.76170    1.000
    C234     C        0.84070    0.94640    0.74340    1.000
    N78      N        0.88258    0.43650    0.85240    1.000
    H153     H        0.84390    0.34160    0.84150    1.000
    H154     H        0.91560    0.54360    0.85290    1.000
    N79      N        0.81677    0.00540    0.71820    1.000
    H155     H        0.76910    0.01380    0.67380    1.000
    H156     H        0.86320    0.96880    0.76180    1.000
    Zn20     Zn       0.92254    0.37323    0.90194    1.000
    Zn21     Zn       0.83041    0.14290    0.72406    1.000
    I63      I        0.97940    0.34100    0.87110    1.000
    I64      I        0.89260    0.25400    0.94150    1.000
    N80      N        0.93258    0.48500    0.94540    1.000
    N81      N        0.86009    0.15790    0.67530    1.000
    I65      I        0.87921    0.16499    0.79961    1.000
    I66      I        0.77271    0.24140    0.70653    1.000
    C235     C        0.88830    0.10330    0.67410    1.000
    C236     C        0.85300    0.22430    0.64440    1.000
    C237     C        0.91240    0.11580    0.64590    1.000
    H157     H        0.89240    0.05250    0.69370    1.000
    H158     H        0.83160    0.26150    0.64300    1.000
    C238     C        0.87510    0.24080    0.61480    1.000
    H159     H        0.93300    0.07620    0.64730    1.000
    C239     C        0.90590    0.18660    0.61600    1.000
    H160     H        0.86930    0.28900    0.59380    1.000
    C240     C        0.93130    0.20300    0.58550    1.000
    N82      N        0.92490    0.27550    0.55850    1.000
    N83      N        0.95905    0.14320    0.58700    1.000
    C241     C        0.94690    0.28310    0.53020    1.000
    C242     C        0.98006    0.15860    0.55810    1.000
    C243     C        0.94200    0.36360    0.50020    1.000
    N84      N        0.97459    0.22490    0.52730    1.000
    C244     C        0.01271    0.09970    0.56000    1.000
    C245     C        0.96920    0.38800    0.47760    1.000
    C246     C        0.90980    0.41570    0.49440    1.000
    C247     C        0.02890    0.08820    0.52400    1.000
    C248     C        0.02890    0.05560    0.59950    1.000
    H161     H        0.99130    0.35300    0.48070    1.000
    C249     C        0.96340    0.46400    0.45060    1.000
    C250     C        0.90650    0.49140    0.46700    1.000
    H162     H        0.89040    0.39970    0.50900    1.000
    H163     H        0.01920    0.11870    0.49660    1.000
    C251     C        0.05970    0.03140    0.52850    1.000
    H164     H        0.01890    0.06210    0.62530    1.000
    C252     C        0.06000    0.00210    0.60080    1.000
    H165     H        0.98190    0.48080    0.43500    1.000
    H166     H        0.88480    0.52800    0.46350    1.000
    H167     H        0.07020    0.02250    0.50330    1.000
    H168     H        0.07110    0.97290    0.62820    1.000
    I67      I        0.97942    0.35550    0.86937    1.000
    I68      I        0.89028    0.25890    0.94194    1.000
    I69      I        0.37090    0.66040    0.79110    1.000
    I70      I        0.26620    0.73140    0.69650    1.000
    I71      I        0.14018    0.89276    0.50110    1.000
    Zn22     Zn       0.11903    0.90035    0.57376    1.000
    I72      I        0.10043    0.76452    0.61522    1.000
    N85      N        0.16155    0.96850    0.61760    1.000
    N86      N        0.07517    0.98910    0.56610    1.000
    C253     C        0.18360    0.92470    0.65200    1.000
    C254     C        0.16870    0.05440    0.60980    1.000
    H169     H        0.17810    0.86340    0.65790    1.000
    C255     C        0.21390    0.96580    0.67890    1.000
    C256     C        0.19870    0.10160    0.63620    1.000
    H170     H        0.15280    0.08510    0.58560    1.000
    H171     H        0.22930    0.93300    0.70280    1.000
    C257     C        0.22201    0.05620    0.67090    1.000
    H172     H        0.20300    0.16360    0.63020    1.000
    C258     C        0.25490    0.10070    0.69960    1.000
    N87      N        0.27632    0.04870    0.73100    1.000
    N88      N        0.26162    0.18840    0.69152    1.000
    C259     C        0.30750    0.08810    0.75370    1.000
    C260     C        0.29240    0.22180    0.71870    1.000
    C261     C        0.33340    0.03360    0.78760    1.000
    N89      N        0.31673    0.17430    0.74880    1.000
    C262     C        0.30109    0.32040    0.71610    1.000
    C263     C        0.32470    0.94650    0.79970    1.000
    C264     C        0.36790    0.07050    0.80760    1.000
    C265     C        0.27650    0.38090    0.68960    1.000
    C266     C        0.33340    0.35520    0.74320    1.000
    C267     C        0.35010    0.90060    0.83270    1.000
    H173     H        0.30180    0.91880    0.78560    1.000
    H174     H        0.37480    0.12930    0.79960    1.000
    C268     C        0.39170    0.01940    0.83950    1.000
    C269     C        0.28580    0.47240    0.69200    1.000
    H175     H        0.25410    0.36010    0.67050    1.000
    H176     H        0.35060    0.31550    0.76170    1.000
    C270     C        0.34070    0.44640    0.74340    1.000
    N90      N        0.38258    0.93650    0.85240    1.000
    H177     H        0.34390    0.84160    0.84150    1.000
    H178     H        0.41560    0.04360    0.85290    1.000
    N91      N        0.31677    0.50540    0.71820    1.000
    H179     H        0.26910    0.51380    0.67380    1.000
    H180     H        0.36320    0.46880    0.76180    1.000
    Zn23     Zn       0.42254    0.87323    0.90194    1.000
    Zn24     Zn       0.33041    0.64290    0.72406    1.000
    I73      I        0.47940    0.84100    0.87110    1.000
    I74      I        0.39260    0.75400    0.94150    1.000
    N92      N        0.43258    0.98500    0.94540    1.000
    N93      N        0.36009    0.65790    0.67530    1.000
    I75      I        0.37921    0.66499    0.79961    1.000
    I76      I        0.27271    0.74140    0.70653    1.000
    C271     C        0.38830    0.60330    0.67410    1.000
    C272     C        0.35300    0.72430    0.64440    1.000
    C273     C        0.41240    0.61580    0.64590    1.000
    H181     H        0.39240    0.55250    0.69370    1.000
    H182     H        0.33160    0.76150    0.64300    1.000
    C274     C        0.37510    0.74080    0.61480    1.000
    H183     H        0.43300    0.57620    0.64730    1.000
    C275     C        0.40590    0.68660    0.61600    1.000
    H184     H        0.36930    0.78900    0.59380    1.000
    C276     C        0.43130    0.70300    0.58550    1.000
    N94      N        0.42490    0.77550    0.55850    1.000
    N95      N        0.45905    0.64320    0.58700    1.000
    C277     C        0.44690    0.78310    0.53020    1.000
    C278     C        0.48006    0.65860    0.55810    1.000
    C279     C        0.44200    0.86360    0.50020    1.000
    N96      N        0.47459    0.72490    0.52730    1.000
    C280     C        0.51271    0.59970    0.56000    1.000
    C281     C        0.46920    0.88800    0.47760    1.000
    C282     C        0.40980    0.91570    0.49440    1.000
    C283     C        0.52890    0.58820    0.52400    1.000
    C284     C        0.52890    0.55560    0.59950    1.000
    H185     H        0.49130    0.85300    0.48070    1.000
    C285     C        0.46340    0.96400    0.45060    1.000
    C286     C        0.40650    0.99140    0.46700    1.000
    H186     H        0.39040    0.89970    0.50900    1.000
    H187     H        0.51920    0.61870    0.49660    1.000
    C287     C        0.55970    0.53140    0.52850    1.000
    H188     H        0.51890    0.56210    0.62530    1.000
    C288     C        0.56000    0.50210    0.60080    1.000
    H189     H        0.48190    0.98080    0.43500    1.000
    H190     H        0.38480    0.02800    0.46350    1.000
    H191     H        0.57020    0.52250    0.50330    1.000
    H192     H        0.57110    0.47290    0.62820    1.000
    I77      I        0.47942    0.85550    0.86937    1.000
    I78      I        0.39028    0.75890    0.94194    1.000
    I79      I        0.87090    0.16040    0.79110    1.000
    I80      I        0.76620    0.23140    0.69650    1.000
