# CIF file generated by openbabel 3.1.0, see https://openbabel.org
data_I
_chemical_name_common 'TISNEQ_clean'
_cell_length_a 10.4405
_cell_length_b 13.3926
_cell_length_c 20.454
_cell_angle_alpha 90
_cell_angle_beta 90
_cell_angle_gamma 94.425
_space_group_name_H-M_alt 'P 1'
_space_group_name_Hall 'P 1'
loop_
    _symmetry_equiv_pos_as_xyz
    x,y,z
loop_
    _atom_site_label
    _atom_site_type_symbol
    _atom_site_fract_x
    _atom_site_fract_y
    _atom_site_fract_z
    _atom_site_occupancy
    Zn1      Zn       0.25341    0.56273    0.10310    1.000
    Zn2      Zn       0.75341    0.06273    0.39690    1.000
    Zn3      Zn       0.24659    0.93727    0.60310    1.000
    Zn4      Zn       0.74659    0.43727    0.89690    1.000
    H1       H        0.70740    0.65500    0.69110    1.000
    H2       H        0.62360    0.06380    0.14320    1.000
    H3       H        0.41320    0.53280    0.54750    1.000
    H4       H        0.81150    0.22150    0.00030    1.000
    H5       H        0.58680    0.46720    0.45250    1.000
    H6       H        0.52870    0.27170    0.94850    1.000
    H7       H        0.31150    0.72150    0.49970    1.000
    H8       H        0.79720    0.65800    0.29790    1.000
    H9       H        0.45610    0.26750    0.15800    1.000
    H10      H        0.24300    0.85240    0.78110    1.000
    H11      H        0.75700    0.14760    0.21890    1.000
    H12      H        0.79260    0.84500    0.19110    1.000
    H13      H        0.97130    0.22830    0.44850    1.000
    H14      H        0.86050    0.91880    0.86510    1.000
    H15      H        0.08420    0.73450    0.81330    1.000
    H16      H        0.18850    0.77850    0.99970    1.000
    H17      H        0.25700    0.64760    0.28110    1.000
    H18      H        0.91580    0.26550    0.18670    1.000
    H19      H        0.95080    0.60890    0.84690    1.000
    H20      H        0.93420    0.74970    0.13720    1.000
    H21      H        0.36050    0.41880    0.63490    1.000
    H22      H        0.51500    0.17980    0.47200    1.000
    H23      H        0.29720    0.15800    0.20210    1.000
    H24      H        0.47700    0.53810    0.43650    1.000
    H25      H        0.47170    0.03960    0.06260    1.000
    H26      H        0.52800    0.42960    0.10810    1.000
    H27      H        0.52300    0.46190    0.56350    1.000
    H28      H        0.58420    0.23450    0.68670    1.000
    H29      H        0.04920    0.39110    0.15310    1.000
    H30      H        0.20280    0.34200    0.70210    1.000
    H31      H        0.37640    0.93620    0.85680    1.000
    H32      H        0.29840    0.22740    0.98080    1.000
    H33      H        0.97170    0.53960    0.43740    1.000
    H34      H        0.57080    0.95800    0.05140    1.000
    H35      H        0.56580    0.75030    0.63720    1.000
    H36      H        0.01500    0.67980    0.02800    1.000
    H37      H        0.08750    0.99640    0.28060    1.000
    H38      H        0.58750    0.49640    0.21940    1.000
    H39      H        0.27000    0.59650    0.72460    1.000
    H40      H        0.02800    0.92960    0.39190    1.000
    H41      H        0.47130    0.72830    0.05150    1.000
    H42      H        0.97700    0.03810    0.06350    1.000
    H43      H        0.42920    0.04200    0.94860    1.000
    H44      H        0.43420    0.24970    0.36280    1.000
    H45      H        0.41250    0.50360    0.78060    1.000
    H46      H        0.08680    0.96720    0.04750    1.000
    H47      H        0.73000    0.40350    0.27540    1.000
    H48      H        0.97200    0.07040    0.60810    1.000
    H49      H        0.54390    0.73250    0.84200    1.000
    H50      H        0.68850    0.27850    0.50030    1.000
    H51      H        0.20740    0.15500    0.80890    1.000
    H52      H        0.95610    0.76750    0.34200    1.000
    H53      H        0.91320    0.03280    0.95250    1.000
    H54      H        0.20160    0.27260    0.48080    1.000
    H55      H        0.06580    0.25030    0.86280    1.000
    H56      H        0.79840    0.72740    0.51920    1.000
    H57      H        0.41580    0.76550    0.31330    1.000
    H58      H        0.77000    0.09650    0.77540    1.000
    H59      H        0.02870    0.77170    0.55150    1.000
    H60      H        0.13950    0.08120    0.13490    1.000
    H61      H        0.70160    0.77260    0.01920    1.000
    H62      H        0.48500    0.82020    0.52800    1.000
    H63      H        0.02830    0.46040    0.56260    1.000
    H64      H        0.54920    0.89110    0.34690    1.000
    H65      H        0.29260    0.34500    0.30890    1.000
    H66      H        0.47200    0.57040    0.89190    1.000
    H67      H        0.91250    0.00360    0.71940    1.000
    H68      H        0.52830    0.96040    0.93740    1.000
    H69      H        0.63950    0.58120    0.36510    1.000
    H70      H        0.07080    0.45800    0.44860    1.000
    H71      H        0.92920    0.54200    0.55140    1.000
    H72      H        0.12360    0.56380    0.35680    1.000
    H73      H        0.02300    0.96190    0.93650    1.000
    H74      H        0.04390    0.23250    0.65800    1.000
    H75      H        0.98500    0.32020    0.97200    1.000
    H76      H        0.45080    0.10890    0.65310    1.000
    H77      H        0.23000    0.90350    0.22460    1.000
    H78      H        0.74300    0.35240    0.71890    1.000
    H79      H        0.70280    0.84200    0.79790    1.000
    H80      H        0.87640    0.43620    0.64320    1.000
    C1       C        0.03470    0.20140    0.83331    1.000
    C2       C        0.79500    0.36579    0.56443    1.000
    C3       C        0.35800    0.61008    0.71905    1.000
    C4       C        0.03250    0.51470    0.46807    1.000
    C5       C        0.60750    0.76320    0.86861    1.000
    C6       C        0.95150    0.09300    0.56665    1.000
    C7       C        0.85800    0.11008    0.78095    1.000
    C8       C        0.13710    0.76750    0.84435    1.000
    C9       C        0.53600    0.51857    0.47003    1.000
    C10      C        0.44370    0.55387    0.75208    1.000
    C11      C        0.16800    0.02300    0.71415    1.000
    C12      C        0.57430    0.57157    0.74322    1.000
    C13      C        0.14200    0.88992    0.21905    1.000
    C14      C        0.68490    0.24460    0.35198    1.000
    C15      C        0.63710    0.26750    0.65565    1.000
    C16      C        0.87900    0.25385    0.09084    1.000
    C17      C        0.31510    0.75540    0.64802    1.000
    C18      C        0.96530    0.79860    0.16669    1.000
    C19      C        0.10830    0.24406    0.56571    1.000
    C20      C        0.42570    0.42843    0.25678    1.000
    C21      C        0.95170    0.17956    0.48004    1.000
    C22      C        0.89250    0.73680    0.36861    1.000
    C23      C        0.55630    0.44613    0.24792    1.000
    C24      C        0.05630    0.94613    0.25208    1.000
    C25      C        0.20200    0.32860    0.65749    1.000
    C26      C        0.29860    0.21202    0.02512    1.000
    C27      C        0.60830    0.74406    0.93429    1.000
    C28      C        0.94590    0.61090    0.89230    1.000
    C29      C        0.01960    0.35080    0.00950    1.000
    C30      C        0.83200    0.97700    0.28585    1.000
    C31      C        0.11970    0.14450    0.80099    1.000
    C32      C        0.46530    0.29860    0.33331    1.000
    C33      C        0.69930    0.29398    0.54435    1.000
    C34      C        0.10750    0.26320    0.63139    1.000
    C35      C        0.26780    0.66200    0.32536    1.000
    C36      C        0.53470    0.70140    0.66669    1.000
    C37      C        0.76780    0.16200    0.17464    1.000
    C38      C        0.98040    0.64920    0.99050    1.000
    C39      C        0.30070    0.70602    0.45565    1.000
    C40      C        0.45150    0.59300    0.93335    1.000
    C41      C        0.18490    0.74460    0.14802    1.000
    C42      C        0.79640    0.87480    0.88286    1.000
    C43      C        0.46750    0.98530    0.96807    1.000
    C44      C        0.70200    0.82860    0.84251    1.000
    C45      C        0.29800    0.17140    0.15749    1.000
    C46      C        0.40450    0.68669    0.67759    1.000
    C47      C        0.36290    0.73250    0.34435    1.000
    C48      C        0.45170    0.67956    0.01996    1.000
    C49      C        0.44590    0.11090    0.60770    1.000
    C50      C        0.70500    0.64430    0.44856    1.000
    C51      C        0.54850    0.40700    0.06665    1.000
    C52      C        0.20500    0.63421    0.43557    1.000
    C53      C        0.23220    0.83800    0.82536    1.000
    C54      C        0.66800    0.52300    0.78585    1.000
    C55      C        0.20360    0.12520    0.11714    1.000
    C56      C        0.29640    0.37480    0.61714    1.000
    C57      C        0.46400    0.48143    0.52997    1.000
    C58      C        0.31250    0.88840    0.87030    1.000
    C59      C        0.53250    0.01470    0.03193    1.000
    C60      C        0.39170    0.25594    0.06571    1.000
    C61      C        0.18750    0.61160    0.37030    1.000
    C62      C        0.79860    0.71202    0.47488    1.000
    C63      C        0.09550    0.81331    0.17759    1.000
    C64      C        0.70140    0.78798    0.97488    1.000
    C65      C        0.29500    0.35570    0.55144    1.000
    C66      C        0.04830    0.82044    0.51996    1.000
    C67      C        0.81250    0.38840    0.62970    1.000
    C68      C        0.59550    0.31331    0.32241    1.000
    C69      C        0.05410    0.38910    0.10770    1.000
    C70      C        0.90450    0.18669    0.82241    1.000
    C71      C        0.39250    0.23680    0.13139    1.000
    C72      C        0.73220    0.33800    0.67464    1.000
    C73      C        0.86290    0.23250    0.15565    1.000
    C74      C        0.20140    0.28798    0.52512    1.000
    C75      C        0.88030    0.85550    0.19901    1.000
    C76      C        0.70360    0.62520    0.38286    1.000
    C77      C        0.38030    0.35550    0.30099    1.000
    C78      C        0.29500    0.86579    0.93557    1.000
    C79      C        0.12100    0.74615    0.90916    1.000
    C80      C        0.19930    0.79398    0.95565    1.000
    C81      C        0.61970    0.64450    0.69901    1.000
    C82      C        0.64200    0.38992    0.28095    1.000
    C83      C        0.54830    0.32044    0.98004    1.000
    C84      C        0.96400    0.98143    0.97003    1.000
    C85      C        0.89170    0.75594    0.43429    1.000
    C86      C        0.04850    0.90700    0.43335    1.000
    C87      C        0.33200    0.47700    0.21415    1.000
    C88      C        0.48040    0.14920    0.50950    1.000
    C89      C        0.79500    0.85570    0.94856    1.000
    C90      C        0.62100    0.24615    0.59084    1.000
    C91      C        0.07430    0.07157    0.75678    1.000
    C92      C        0.70500    0.13421    0.06443    1.000
    C93      C        0.79800    0.67140    0.34251    1.000
    C94      C        0.80070    0.20602    0.04435    1.000
    C95      C        0.37900    0.75385    0.40916    1.000
    C96      C        0.68750    0.11160    0.12970    1.000
    C97      C        0.55410    0.88910    0.39230    1.000
    C98      C        0.20500    0.14430    0.05144    1.000
    C99      C        0.94370    0.05387    0.74792    1.000
    C100     C        0.96750    0.48530    0.53193    1.000
    C101     C        0.81510    0.25540    0.85198    1.000
    C102     C        0.51960    0.85080    0.49050    1.000
    C103     C        0.03600    0.01857    0.02997    1.000
    C104     C        0.92570    0.92843    0.24322    1.000
    N1       N        0.13430    0.44548    0.07354    1.000
    N2       N        0.36460    0.54895    0.97044    1.000
    N3       N        0.13590    0.89451    0.52644    1.000
    N4       N        0.99050    0.82401    0.46172    1.000
    N5       N        0.00950    0.17599    0.53828    1.000
    N6       N        0.13540    0.95105    0.47044    1.000
    N7       N        0.52100    0.17256    0.57033    1.000
    N8       N        0.88690    0.57851    0.99108    1.000
    N9       N        0.63590    0.39451    0.97356    1.000
    N10      N        0.97900    0.32744    0.07033    1.000
    N11      N        0.50950    0.67599    0.96172    1.000
    N12      N        0.86410    0.10549    0.47356    1.000
    N13      N        0.86570    0.55452    0.92646    1.000
    N14      N        0.49050    0.32401    0.03828    1.000
    N15      N        0.63430    0.94548    0.42646    1.000
    N16      N        0.38690    0.07851    0.50892    1.000
    N17      N        0.86460    0.04895    0.52956    1.000
    N18      N        0.11310    0.42149    0.00892    1.000
    N19      N        0.47900    0.82744    0.42967    1.000
    N20      N        0.61310    0.92149    0.49108    1.000
    N21      N        0.36410    0.60549    0.02644    1.000
    N22      N        0.63540    0.45105    0.02956    1.000
    N23      N        0.36570    0.05452    0.57354    1.000
    N24      N        0.02100    0.67256    0.92967    1.000
    O1       O        0.61703    0.60315    0.49175    1.000
    O2       O        0.30150    0.76556    0.14672    1.000
    O3       O        0.78403    0.53457    0.77605    1.000
    O4       O        0.62985    0.09221    0.01460    1.000
    O5       O        0.71597    0.96543    0.27605    1.000
    O6       O        0.13388    0.66118    0.12663    1.000
    O7       O        0.37015    0.90779    0.98540    1.000
    O8       O        0.19850    0.73444    0.64672    1.000
    O9       O        0.38297    0.39685    0.50825    1.000
    O10      O        0.21597    0.46543    0.22395    1.000
    O11      O        0.87015    0.40779    0.51460    1.000
    O12      O        0.88297    0.89685    0.99175    1.000
    O13      O        0.12985    0.59221    0.48540    1.000
    O14      O        0.86612    0.33882    0.87337    1.000
    O15      O        0.69850    0.23444    0.85328    1.000
    O16      O        0.88215    0.02952    0.33335    1.000
    O17      O        0.61785    0.47048    0.83335    1.000
    O18      O        0.63388    0.16118    0.37337    1.000
    O19      O        0.11703    0.10315    0.00825    1.000
    O20      O        0.80150    0.26556    0.35328    1.000
    O21      O        0.38215    0.52952    0.16665    1.000
    O22      O        0.28403    0.03457    0.72395    1.000
    O23      O        0.36612    0.83882    0.62663    1.000
    O24      O        0.11785    0.97048    0.66665    1.000
