# CIF file generated by openbabel 3.1.0, see https://openbabel.org
data_I
_chemical_name_common 'ADEGIA_clean'
_cell_length_a 8.6066
_cell_length_b 10.156
_cell_length_c 11.161
_cell_angle_alpha 65.26
_cell_angle_beta 71.76
_cell_angle_gamma 78.68
_space_group_name_H-M_alt 'P 1'
_space_group_name_Hall 'P 1'
loop_
    _symmetry_equiv_pos_as_xyz
    x,y,z
loop_
    _atom_site_label
    _atom_site_type_symbol
    _atom_site_fract_x
    _atom_site_fract_y
    _atom_site_fract_z
    _atom_site_occupancy
    Gd1      Gd       0.86814    0.56025    0.34671    1.000
    Gd2      Gd       0.13186    0.43975    0.65329    1.000
    H1       H        0.92870    0.78140    0.68110    1.000
    H2       H        0.01670    0.02740    0.28030    1.000
    H3       H        0.36530    0.88490    0.22730    1.000
    H4       H        0.77130    0.93120    0.91890    1.000
    H5       H        0.45750    0.64510    0.12230    1.000
    H6       H        0.28400    0.38340    0.01480    1.000
    H7       H        0.07130    0.21860    0.31890    1.000
    H8       H        0.98330    0.97260    0.71970    1.000
    H9       H        0.63470    0.11510    0.77270    1.000
    H10      H        0.22870    0.06880    0.08110    1.000
    H11      H        0.54250    0.35490    0.87770    1.000
    H12      H        0.71600    0.61660    0.98520    1.000
    C1       C        0.93160    0.76520    0.44740    1.000
    C2       C        0.96740    0.88560    0.47640    1.000
    C3       C        0.95720    0.86880    0.60850    1.000
    C4       C        0.01000    0.01640    0.36870    1.000
    C5       C        0.67460    0.76800    0.18010    1.000
    C6       C        0.58260    0.88900    0.08890    1.000
    C7       C        0.41990    0.93090    0.13600    1.000
    C8       C        0.66200    0.95890    0.95180    1.000
    C9       C        0.17890    0.53890    0.16910    1.000
    C10      C        0.34520    0.51770    0.08240    1.000
    C11      C        0.47470    0.58670    0.07300    1.000
    C12      C        0.37040    0.43020    0.00900    1.000
    C13      C        0.06840    0.23480    0.55260    1.000
    C14      C        0.03260    0.11440    0.52360    1.000
    C15      C        0.04280    0.13120    0.39150    1.000
    C16      C        0.99000    0.98360    0.63130    1.000
    C17      C        0.32540    0.23200    0.81990    1.000
    C18      C        0.41740    0.11100    0.91110    1.000
    C19      C        0.58010    0.06910    0.86400    1.000
    C20      C        0.33800    0.04110    0.04820    1.000
    C21      C        0.82110    0.46110    0.83090    1.000
    C22      C        0.65480    0.48230    0.91760    1.000
    C23      C        0.52530    0.41330    0.92700    1.000
    C24      C        0.62960    0.56980    0.99100    1.000
    O1       O        0.96380    0.63354    0.51944    1.000
    O2       O        0.86890    0.79781    0.35090    1.000
    O3       O        0.60220    0.70040    0.30452    1.000
    O4       O        0.82170    0.73500    0.13105    1.000
    O5       O        0.15690    0.61894    0.23584    1.000
    O6       O        0.06310    0.47663    0.17499    1.000
    O7       O        0.03620    0.36646    0.48056    1.000
    O8       O        0.13110    0.20219    0.64910    1.000
    O9       O        0.39780    0.29960    0.69548    1.000
    O10      O        0.17830    0.26500    0.86895    1.000
    O11      O        0.84310    0.38106    0.76416    1.000
    O12      O        0.93690    0.52337    0.82501    1.000
