# CIF file generated by openbabel 3.1.0, see https://openbabel.org
data_I
_chemical_name_common 'image0'
_cell_length_a 12.848
_cell_length_b 13.37
_cell_length_c 13.967
_cell_angle_alpha 90
_cell_angle_beta 90
_cell_angle_gamma 90
_space_group_name_H-M_alt 'P 1'
_space_group_name_Hall 'P 1'
loop_
    _symmetry_equiv_pos_as_xyz
    x,y,z
loop_
    _atom_site_label
    _atom_site_type_symbol
    _atom_site_fract_x
    _atom_site_fract_y
    _atom_site_fract_z
    _atom_site_occupancy
    Cu1      Cu       0.39472    0.18663    0.63628    1.000
    Cu2      Cu       0.54851    0.05078    0.94170    1.000
    C1       C        0.46395    0.13169    0.74539    1.000
    N1       N        0.49498    0.09973    0.81703    1.000
    C2       C        0.45686    0.39350    0.55453    1.000
    N2       N        0.42683    0.32222    0.59089    1.000
    C3       C        0.27699    0.12684    0.57220    1.000
    N3       N        0.19587    0.09534    0.55300    1.000
    Cu3      Cu       0.10528    0.81337    0.13628    1.000
    Cu4      Cu       0.95149    0.94922    0.44170    1.000
    C4       C        0.03605    0.86831    0.24539    1.000
    N4       N        0.00502    0.90027    0.31703    1.000
    C5       C        0.04314    0.60650    0.05453    1.000
    N5       N        0.07317    0.67778    0.09089    1.000
    C6       C        0.22301    0.87316    0.07220    1.000
    N6       N        0.30413    0.90466    0.05300    1.000
    Cu5      Cu       0.60528    0.68663    0.86372    1.000
    Cu6      Cu       0.45149    0.55078    0.55830    1.000
    C7       C        0.53605    0.63169    0.75461    1.000
    N7       N        0.50502    0.59973    0.68297    1.000
    C8       C        0.54314    0.89350    0.94547    1.000
    N8       N        0.57317    0.82222    0.90911    1.000
    C9       C        0.72301    0.62684    0.92780    1.000
    N9       N        0.80413    0.59534    0.94700    1.000
    Cu7      Cu       0.89472    0.31337    0.36372    1.000
    Cu8      Cu       0.04851    0.44922    0.05830    1.000
    C10      C        0.96395    0.36831    0.25461    1.000
    N10      N        0.99498    0.40027    0.18297    1.000
    C11      C        0.95686    0.10650    0.44547    1.000
    N11      N        0.92683    0.17778    0.40911    1.000
    C12      C        0.77699    0.37316    0.42780    1.000
    N12      N        0.69587    0.40466    0.44700    1.000
    Cu9      Cu       0.60528    0.81337    0.36372    1.000
    Cu10     Cu       0.45149    0.94922    0.05830    1.000
    C13      C        0.53605    0.86831    0.25461    1.000
    N13      N        0.50502    0.90027    0.18297    1.000
    C14      C        0.54314    0.60650    0.44547    1.000
    N14      N        0.57317    0.67778    0.40911    1.000
    C15      C        0.72301    0.87316    0.42780    1.000
    N15      N        0.80413    0.90466    0.44700    1.000
    Cu11     Cu       0.89472    0.18663    0.86372    1.000
    Cu12     Cu       0.04851    0.05078    0.55830    1.000
    C16      C        0.96395    0.13169    0.75461    1.000
    N16      N        0.99498    0.09973    0.68297    1.000
    C17      C        0.95686    0.39350    0.94547    1.000
    N17      N        0.92683    0.32222    0.90911    1.000
    C18      C        0.77699    0.12684    0.92780    1.000
    N18      N        0.69587    0.09534    0.94700    1.000
    Cu13     Cu       0.39472    0.31337    0.13628    1.000
    Cu14     Cu       0.54851    0.44922    0.44170    1.000
    C19      C        0.46395    0.36831    0.24539    1.000
    N19      N        0.49498    0.40027    0.31703    1.000
    C20      C        0.45686    0.10650    0.05453    1.000
    N20      N        0.42683    0.17778    0.09089    1.000
    C21      C        0.27699    0.37316    0.07220    1.000
    N21      N        0.19587    0.40466    0.05300    1.000
    Cu15     Cu       0.10528    0.68663    0.63628    1.000
    Cu16     Cu       0.95149    0.55078    0.94170    1.000
    C22      C        0.03605    0.63169    0.74539    1.000
    N22      N        0.00502    0.59973    0.81703    1.000
    C23      C        0.04314    0.89350    0.55453    1.000
    N23      N        0.07317    0.82222    0.59089    1.000
    C24      C        0.22301    0.62684    0.57220    1.000
    N24      N        0.30413    0.59534    0.55300    1.000
