# CIF file generated by openbabel 3.1.0, see https://openbabel.org
data_I
_chemical_name_common 'image0'
_cell_length_a 13.2246
_cell_length_b 17.8923
_cell_length_c 11.0836
_cell_angle_alpha 90
_cell_angle_beta 89.801
_cell_angle_gamma 90
_space_group_name_H-M_alt 'P 1'
_space_group_name_Hall 'P 1'
loop_
    _symmetry_equiv_pos_as_xyz
    x,y,z
loop_
    _atom_site_label
    _atom_site_type_symbol
    _atom_site_fract_x
    _atom_site_fract_y
    _atom_site_fract_z
    _atom_site_occupancy
    Al1      Al       0.11620    0.23720    0.24160    1.000
    O1       O        0.94270    0.68350    0.61880    1.000
    O2       O        0.16390    0.16180    0.13650    1.000
    O3       O        0.10000    0.33310    0.32620    1.000
    O4       O        0.32730    0.79460    0.88760    1.000
    Al2      Al       0.13100    0.73380    0.75440    1.000
    O5       O        0.00670    0.72200    0.83340    1.000
    O6       O        0.25590    0.73900    0.68120    1.000
    O7       O        0.16400    0.81080    0.86660    1.000
    O8       O        0.94410    0.29630    0.35050    1.000
    O9       O        0.09600    0.66090    0.62770    1.000
    O10      O        0.33040    0.16190    0.14320    1.000
    C1       C        0.15190    0.93229    0.02421    1.000
    C2       C        0.16401    0.99873    0.10900    1.000
    C3       C        0.34420    0.01490    0.04815    1.000
    C4       C        0.33296    0.94865    0.96308    1.000
    C5       C        0.25383    0.89276    0.00731    1.000
    C6       C        0.24167    0.05369    0.06078    1.000
    C7       C        0.24575    0.82762    0.92199    1.000
    C8       C        0.24678    0.12458    0.13319    1.000
    C9       C        0.92416    0.51503    0.54113    1.000
    C10      C        0.91688    0.45108    0.45121    1.000
    C11      C        0.10064    0.46684    0.40521    1.000
    C12      C        0.10823    0.53197    0.49350    1.000
    C13      C        0.00553    0.57167    0.50606    1.000
    C14      C        0.01932    0.41135    0.44369    1.000
    C15      C        0.01041    0.63439    0.59662    1.000
    C16      C        0.01567    0.34285    0.36494    1.000
    O11      O        0.17600    0.27720    0.09700    1.000
    Al3      Al       0.37460    0.72730    0.76090    1.000
    O12      O        0.56060    0.16300    0.35840    1.000
    O13      O        0.32950    0.64860    0.85970    1.000
    O14      O        0.40610    0.79790    0.64700    1.000
    O15      O        0.15720    0.64740    0.86160    1.000
    Al4      Al       0.37220    0.23400    0.26490    1.000
    O16      O        0.49310    0.23250    0.18940    1.000
    O17      O        0.24180    0.25470    0.31150    1.000
    O18      O        0.33070    0.30520    0.14090    1.000
    O19      O        0.56840    0.81750    0.63950    1.000
    O20      O        0.39350    0.16200    0.38090    1.000
    C17      C        0.33633    0.42983    0.00755    1.000
    C18      C        0.32464    0.49364    0.91755    1.000
    C19      C        0.14473    0.51255    0.97751    1.000
    C20      C        0.15557    0.44896    0.06778    1.000
    C21      C        0.23408    0.39138    0.02789    1.000
    C22      C        0.24759    0.55040    0.96150    1.000
    C23      C        0.24177    0.32891    0.11832    1.000
    C24      C        0.24297    0.61899    0.88348    1.000
    C25      C        0.56905    0.01841    0.46434    1.000
    C26      C        0.57581    0.95475    0.55486    1.000
    C27      C        0.39042    0.96738    0.59336    1.000
    C28      C        0.38327    0.03220    0.50445    1.000
    C29      C        0.48496    0.07367    0.49581    1.000
    C30      C        0.47452    0.91326    0.55847    1.000
    C31      C        0.48066    0.13614    0.40475    1.000
    C32      C        0.47810    0.84497    0.63771    1.000
    Al5      Al       0.88380    0.73720    0.75840    1.000
    O21      O        0.05730    0.18350    0.38120    1.000
    O22      O        0.83610    0.66180    0.86350    1.000
    O23      O        0.90000    0.83310    0.67380    1.000
    O24      O        0.67270    0.29460    0.11240    1.000
    Al6      Al       0.86900    0.23380    0.24560    1.000
    O25      O        0.99330    0.22200    0.16660    1.000
    O26      O        0.74410    0.23900    0.31880    1.000
    O27      O        0.83600    0.31080    0.13340    1.000
    O28      O        0.05590    0.79630    0.64950    1.000
    O29      O        0.90400    0.16090    0.37230    1.000
    O30      O        0.66960    0.66190    0.85680    1.000
    C33      C        0.84810    0.43229    0.97579    1.000
    C34      C        0.83599    0.49873    0.89100    1.000
    C35      C        0.65580    0.51490    0.95185    1.000
    C36      C        0.66704    0.44865    0.03692    1.000
    C37      C        0.74617    0.39276    0.99269    1.000
    C38      C        0.75833    0.55369    0.93922    1.000
    C39      C        0.75425    0.32762    0.07801    1.000
    C40      C        0.75322    0.62458    0.86681    1.000
    C41      C        0.07584    0.01503    0.45887    1.000
    C42      C        0.08312    0.95108    0.54879    1.000
    C43      C        0.89936    0.96684    0.59479    1.000
    C44      C        0.89177    0.03197    0.50650    1.000
    C45      C        0.99447    0.07167    0.49394    1.000
    C46      C        0.98068    0.91135    0.55631    1.000
    C47      C        0.98959    0.13439    0.40338    1.000
    C48      C        0.98433    0.84285    0.63506    1.000
    O31      O        0.82400    0.77720    0.90300    1.000
    Al7      Al       0.62540    0.22730    0.23910    1.000
    O32      O        0.43940    0.66300    0.64160    1.000
    O33      O        0.67050    0.14860    0.14030    1.000
    O34      O        0.59390    0.29790    0.35300    1.000
    O35      O        0.84280    0.14740    0.13840    1.000
    Al8      Al       0.62780    0.73400    0.73510    1.000
    O36      O        0.50690    0.73250    0.81060    1.000
    O37      O        0.75820    0.75470    0.68850    1.000
    O38      O        0.66930    0.80520    0.85910    1.000
    O39      O        0.43160    0.31750    0.36050    1.000
    O40      O        0.60650    0.66200    0.61910    1.000
    C49      C        0.66367    0.92983    0.99245    1.000
    C50      C        0.67536    0.99364    0.08245    1.000
    C51      C        0.85527    0.01255    0.02249    1.000
    C52      C        0.84443    0.94896    0.93222    1.000
    C53      C        0.76592    0.89138    0.97211    1.000
    C54      C        0.75241    0.05040    0.03850    1.000
    C55      C        0.75823    0.82891    0.88168    1.000
    C56      C        0.75703    0.11899    0.11652    1.000
    C57      C        0.43095    0.51841    0.53566    1.000
    C58      C        0.42419    0.45475    0.44514    1.000
    C59      C        0.60958    0.46738    0.40664    1.000
    C60      C        0.61673    0.53220    0.49555    1.000
    C61      C        0.51504    0.57367    0.50419    1.000
    C62      C        0.52548    0.41326    0.44153    1.000
    C63      C        0.51934    0.63614    0.59525    1.000
    C64      C        0.52190    0.34497    0.36229    1.000
