# CIF file generated by openbabel 3.1.0, see https://openbabel.org
data_I
_chemical_name_common 'ILOJEZ_clean'
_cell_length_a 10.836
_cell_length_b 14.962
_cell_length_c 14.967
_cell_angle_alpha 90
_cell_angle_beta 92.494
_cell_angle_gamma 90
_space_group_name_H-M_alt 'P 1'
_space_group_name_Hall 'P 1'
loop_
    _symmetry_equiv_pos_as_xyz
    x,y,z
loop_
    _atom_site_label
    _atom_site_type_symbol
    _atom_site_fract_x
    _atom_site_fract_y
    _atom_site_fract_z
    _atom_site_occupancy
    Zn1      Zn       0.42952    0.65761    0.12123    1.000
    Zn2      Zn       0.07048    0.15761    0.87877    1.000
    Zn3      Zn       0.57048    0.34239    0.87877    1.000
    Zn4      Zn       0.92952    0.84239    0.12123    1.000
    H1       H        0.25150    0.58980    0.26590    1.000
    H2       H        0.47160    0.79050    0.29760    1.000
    H3       H        0.43010    0.82580    0.46610    1.000
    H4       H        0.36340    0.74780    0.51430    1.000
    H5       H        0.21010    0.86940    0.34460    1.000
    H6       H        0.04710    0.96450    0.36030    1.000
    H7       H        0.08260    0.93720    0.62380    1.000
    H8       H        0.24030    0.83730    0.60460    1.000
    H9       H        0.83560    0.40970    0.49490    1.000
    H10      H        0.75610    0.37180    0.35570    1.000
    H11      H        0.02450    0.50280    0.24380    1.000
    H12      H        0.10480    0.54300    0.38460    1.000
    H13      H        0.87990    0.41310    0.14840    1.000
    H14      H        0.76760    0.36590    0.19220    1.000
    H15      H        0.56500    0.45610    0.14210    1.000
    H16      H        0.70200    0.69490    0.14590    1.000
    H17      H        0.34570    0.89460    0.98510    1.000
    H18      H        0.24850    0.08980    0.73410    1.000
    H19      H        0.02840    0.29050    0.70240    1.000
    H20      H        0.06990    0.32580    0.53390    1.000
    H21      H        0.13660    0.24780    0.48570    1.000
    H22      H        0.28990    0.36940    0.65540    1.000
    H23      H        0.45290    0.46450    0.63970    1.000
    H24      H        0.41740    0.43720    0.37620    1.000
    H25      H        0.25970    0.33730    0.39540    1.000
    H26      H        0.66440    0.90970    0.50510    1.000
    H27      H        0.74390    0.87180    0.64430    1.000
    H28      H        0.47550    0.00280    0.75620    1.000
    H29      H        0.39520    0.04300    0.61540    1.000
    H30      H        0.62010    0.91310    0.85160    1.000
    H31      H        0.73240    0.86590    0.80780    1.000
    H32      H        0.93500    0.95610    0.85790    1.000
    H33      H        0.79800    0.19490    0.85410    1.000
    H34      H        0.15430    0.39460    0.01490    1.000
    H35      H        0.74850    0.41020    0.73410    1.000
    H36      H        0.52840    0.20950    0.70240    1.000
    H37      H        0.56990    0.17420    0.53390    1.000
    H38      H        0.63660    0.25220    0.48570    1.000
    H39      H        0.78990    0.13060    0.65540    1.000
    H40      H        0.95290    0.03550    0.63970    1.000
    H41      H        0.91740    0.06280    0.37620    1.000
    H42      H        0.75970    0.16270    0.39540    1.000
    H43      H        0.16440    0.59030    0.50510    1.000
    H44      H        0.24390    0.62820    0.64430    1.000
    H45      H        0.97550    0.49720    0.75620    1.000
    H46      H        0.89520    0.45700    0.61540    1.000
    H47      H        0.12010    0.58690    0.85160    1.000
    H48      H        0.23240    0.63410    0.80780    1.000
    H49      H        0.43500    0.54390    0.85790    1.000
    H50      H        0.29800    0.30510    0.85410    1.000
    H51      H        0.65430    0.10540    0.01490    1.000
    H52      H        0.75150    0.91020    0.26590    1.000
    H53      H        0.97160    0.70950    0.29760    1.000
    H54      H        0.93010    0.67420    0.46610    1.000
    H55      H        0.86340    0.75220    0.51430    1.000
    H56      H        0.71010    0.63060    0.34460    1.000
    H57      H        0.54710    0.53550    0.36030    1.000
    H58      H        0.58260    0.56280    0.62380    1.000
    H59      H        0.74030    0.66270    0.60460    1.000
    H60      H        0.33560    0.09030    0.49490    1.000
    H61      H        0.25610    0.12820    0.35570    1.000
    H62      H        0.52450    0.99720    0.24380    1.000
    H63      H        0.60480    0.95700    0.38460    1.000
    H64      H        0.37990    0.08690    0.14840    1.000
    H65      H        0.26760    0.13410    0.19220    1.000
    H66      H        0.06500    0.04390    0.14210    1.000
    H67      H        0.20200    0.80510    0.14590    1.000
    H68      H        0.84570    0.60540    0.98510    1.000
    C1       C        0.29470    0.63770    0.29160    1.000
    C2       C        0.41410    0.74570    0.30700    1.000
    C3       C        0.35700    0.78830    0.46370    1.000
    C4       C        0.24540    0.84660    0.47320    1.000
    C5       C        0.18540    0.88350    0.40170    1.000
    C6       C        0.08810    0.94170    0.41120    1.000
    C7       C        0.05000    0.96680    0.49440    1.000
    C8       C        0.10790    0.92520    0.56640    1.000
    C9       C        0.20370    0.86540    0.55470    1.000
    C10      C        0.97590    0.48470    0.45610    1.000
    C11      C        0.87390    0.43110    0.44470    1.000
    C12      C        0.82610    0.40780    0.36020    1.000
    C13      C        0.87740    0.43540    0.28440    1.000
    C14      C        0.98390    0.48500    0.29430    1.000
    C15      C        0.03260    0.50940    0.37990    1.000
    C16      C        0.81730    0.41980    0.19230    1.000
    C17      C        0.61920    0.50410    0.14760    1.000
    C18      C        0.69590    0.63310    0.15030    1.000
    C19      C        0.52420    0.82730    0.08810    1.000
    C20      C        0.51720    0.91520    0.03640    1.000
    C21      C        0.61120    0.97800    0.04660    1.000
    C22      C        0.40800    0.93710    0.99090    1.000
    C23      C        0.73870    0.95540    0.08510    1.000
    C24      C        0.20530    0.13770    0.70840    1.000
    C25      C        0.08590    0.24570    0.69300    1.000
    C26      C        0.14300    0.28830    0.53630    1.000
    C27      C        0.25460    0.34660    0.52680    1.000
    C28      C        0.31460    0.38350    0.59830    1.000
    C29      C        0.41190    0.44170    0.58880    1.000
    C30      C        0.45000    0.46680    0.50560    1.000
    C31      C        0.39210    0.42520    0.43360    1.000
    C32      C        0.29630    0.36540    0.44530    1.000
    C33      C        0.52410    0.98470    0.54390    1.000
    C34      C        0.62610    0.93110    0.55530    1.000
    C35      C        0.67390    0.90780    0.63980    1.000
    C36      C        0.62260    0.93540    0.71560    1.000
    C37      C        0.51610    0.98500    0.70570    1.000
    C38      C        0.46740    0.00940    0.62010    1.000
    C39      C        0.68270    0.91980    0.80770    1.000
    C40      C        0.88080    0.00410    0.85240    1.000
    C41      C        0.80410    0.13310    0.84970    1.000
    C42      C        0.97580    0.32730    0.91190    1.000
    C43      C        0.98280    0.41520    0.96360    1.000
    C44      C        0.88880    0.47800    0.95340    1.000
    C45      C        0.09200    0.43710    0.00910    1.000
    C46      C        0.76130    0.45540    0.91490    1.000
    C47      C        0.70530    0.36230    0.70840    1.000
    C48      C        0.58590    0.25430    0.69300    1.000
    C49      C        0.64300    0.21170    0.53630    1.000
    C50      C        0.75460    0.15340    0.52680    1.000
    C51      C        0.81460    0.11650    0.59830    1.000
    C52      C        0.91190    0.05830    0.58880    1.000
    C53      C        0.95000    0.03320    0.50560    1.000
    C54      C        0.89210    0.07480    0.43360    1.000
    C55      C        0.79630    0.13460    0.44530    1.000
    C56      C        0.02410    0.51530    0.54390    1.000
    C57      C        0.12610    0.56890    0.55530    1.000
    C58      C        0.17390    0.59220    0.63980    1.000
    C59      C        0.12260    0.56460    0.71560    1.000
    C60      C        0.01610    0.51500    0.70570    1.000
    C61      C        0.96740    0.49060    0.62010    1.000
    C62      C        0.18270    0.58020    0.80770    1.000
    C63      C        0.38080    0.49590    0.85240    1.000
    C64      C        0.30410    0.36690    0.84970    1.000
    C65      C        0.47580    0.17270    0.91190    1.000
    C66      C        0.48280    0.08480    0.96360    1.000
    C67      C        0.38880    0.02200    0.95340    1.000
    C68      C        0.59200    0.06290    0.00910    1.000
    C69      C        0.26130    0.04460    0.91490    1.000
    C70      C        0.79470    0.86230    0.29160    1.000
    C71      C        0.91410    0.75430    0.30700    1.000
    C72      C        0.85700    0.71170    0.46370    1.000
    C73      C        0.74540    0.65340    0.47320    1.000
    C74      C        0.68540    0.61650    0.40170    1.000
    C75      C        0.58810    0.55830    0.41120    1.000
    C76      C        0.55000    0.53320    0.49440    1.000
    C77      C        0.60790    0.57480    0.56640    1.000
    C78      C        0.70370    0.63460    0.55470    1.000
    C79      C        0.47590    0.01530    0.45610    1.000
    C80      C        0.37390    0.06890    0.44470    1.000
    C81      C        0.32610    0.09220    0.36020    1.000
    C82      C        0.37740    0.06460    0.28440    1.000
    C83      C        0.48390    0.01500    0.29430    1.000
    C84      C        0.53260    0.99060    0.37990    1.000
    C85      C        0.31730    0.08020    0.19230    1.000
    C86      C        0.11920    0.99590    0.14760    1.000
    C87      C        0.19590    0.86690    0.15030    1.000
    C88      C        0.02420    0.67270    0.08810    1.000
    C89      C        0.01720    0.58480    0.03640    1.000
    C90      C        0.11120    0.52200    0.04660    1.000
    C91      C        0.90800    0.56290    0.99090    1.000
    C92      C        0.23870    0.54460    0.08510    1.000
    N1       N        0.37950    0.68280    0.24650    1.000
    N2       N        0.27590    0.66380    0.37200    1.000
    N3       N        0.35580    0.73510    0.38040    1.000
    N4       N        0.58850    0.58900    0.13380    1.000
    N5       N        0.79110    0.58200    0.17290    1.000
    N6       N        0.73920    0.49770    0.17050    1.000
    N7       N        0.12050    0.18280    0.75350    1.000
    N8       N        0.22410    0.16380    0.62800    1.000
    N9       N        0.14420    0.23510    0.61960    1.000
    N10      N        0.91150    0.08900    0.86620    1.000
    N11      N        0.70890    0.08200    0.82710    1.000
    N12      N        0.76080    0.99770    0.82950    1.000
    N13      N        0.62050    0.31720    0.75350    1.000
    N14      N        0.72410    0.33620    0.62800    1.000
    N15      N        0.64420    0.26490    0.61960    1.000
    N16      N        0.41150    0.41100    0.86620    1.000
    N17      N        0.20890    0.41800    0.82710    1.000
    N18      N        0.26080    0.50230    0.82950    1.000
    N19      N        0.87950    0.81720    0.24650    1.000
    N20      N        0.77590    0.83620    0.37200    1.000
    N21      N        0.85580    0.76490    0.38040    1.000
    N22      N        0.08850    0.91100    0.13380    1.000
    N23      N        0.29110    0.91800    0.17290    1.000
    N24      N        0.23920    0.00230    0.17050    1.000
    O1       O        0.46300    0.76220    0.04900    1.000
    O2       O        0.57700    0.82300    0.16070    1.000
    O3       O        0.78530    0.88480    0.05370    1.000
    O4       O        0.78880    0.00480    0.14080    1.000
    O5       O        0.03700    0.26220    0.95100    1.000
    O6       O        0.92300    0.32300    0.83930    1.000
    O7       O        0.71470    0.38480    0.94630    1.000
    O8       O        0.71120    0.50480    0.85920    1.000
    O9       O        0.53700    0.23780    0.95100    1.000
    O10      O        0.42300    0.17700    0.83930    1.000
    O11      O        0.21470    0.11520    0.94630    1.000
    O12      O        0.21120    0.99520    0.85920    1.000
    O13      O        0.96300    0.73780    0.04900    1.000
    O14      O        0.07700    0.67700    0.16070    1.000
    O15      O        0.28530    0.61520    0.05370    1.000
    O16      O        0.28880    0.49520    0.14080    1.000
