# CIF file generated by openbabel 3.1.0, see https://openbabel.org
data_I
_chemical_name_common 'image0'
_cell_length_a 10.2001
_cell_length_b 10.4146
_cell_length_c 10.7531
_cell_angle_alpha 111.736
_cell_angle_beta 117.78
_cell_angle_gamma 92.027
_space_group_name_H-M_alt 'P 1'
_space_group_name_Hall 'P 1'
loop_
    _symmetry_equiv_pos_as_xyz
    x,y,z
loop_
    _atom_site_label
    _atom_site_type_symbol
    _atom_site_fract_x
    _atom_site_fract_y
    _atom_site_fract_z
    _atom_site_occupancy
    Sm1      Sm       0.18481    0.00801    0.46526    1.000
    C1       C        0.40960    0.06160    0.78040    1.000
    O1       O        0.43200    0.99500    0.67110    1.000
    O2       O        0.28670    0.10180    0.74790    1.000
    O3       O        0.35850    0.24660    0.58990    1.000
    O4       O        0.20490    0.17250    0.34950    1.000
    O5       O        0.13730    0.75230    0.41400    1.000
    O6       O        0.99380    0.86380    0.49050    1.000
    C2       C        0.53220    0.10520    0.94880    1.000
    H1       H        0.60320    0.19330    0.98230    1.000
    C3       C        0.46920    0.14080    0.06050    1.000
    H2       H        0.55390    0.18720    0.16790    1.000
    H3       H        0.40550    0.20660    0.04310    1.000
    C4       C        0.62540    0.99540    0.96630    1.000
    H4       H        0.71580    0.03640    0.07030    1.000
    H5       H        0.65880    0.97100    0.89140    1.000
    C5       C        0.32680    0.24950    0.46610    1.000
    C6       C        0.04030    0.75090    0.45150    1.000
    C7       C        0.98010    0.62370    0.46290    1.000
    H6       H        0.87390    0.62120    0.43640    1.000
    C8       C        0.98090    0.48130    0.34820    1.000
    H7       H        0.91430    0.46810    0.24180    1.000
    H8       H        0.08370    0.48450    0.36650    1.000
    C9       C        0.07350    0.64500    0.63210    1.000
    H9       H        0.06420    0.73200    0.69970    1.000
    H10      H        0.18070    0.65570    0.66370    1.000
    C10      C        0.37400    0.38700    0.45300    1.000
    H11      H        0.28910    0.39270    0.36200    1.000
    C11      C        0.43100    0.52700    0.59800    1.000
    H12      H        0.50930    0.51840    0.68840    1.000
    H13      H        0.34750    0.55000    0.61500    1.000
    C12      C        0.50300    0.35200    0.42200    1.000
    H14      H        0.46340    0.26310    0.32750    1.000
    H15      H        0.58350    0.33870    0.50770    1.000
    C13      C        0.45100    0.35600    0.48100    1.000
    C14      C        0.51500    0.48900    0.64100    1.000
    C15      C        0.38100    0.39100    0.34500    1.000
    H16      H        0.53440    0.31160    0.48140    1.000
    H17      H        0.43020    0.52130    0.64940    1.000
    H18      H        0.57170    0.46200    0.72500    1.000
    H19      H        0.28710    0.41810    0.33290    1.000
    H20      H        0.35350    0.30590    0.25050    1.000
    O7       O        0.41600    0.18000    0.56000    1.000
    Sm2      Sm       0.81519    0.99199    0.53474    1.000
    C16      C        0.59040    0.93840    0.21960    1.000
    O8       O        0.56800    0.00500    0.32890    1.000
    O9       O        0.71330    0.89820    0.25210    1.000
    O10      O        0.64150    0.75340    0.41010    1.000
    O11      O        0.79510    0.82750    0.65050    1.000
    O12      O        0.86270    0.24770    0.58600    1.000
    O13      O        0.00620    0.13620    0.50950    1.000
    C17      C        0.46780    0.89480    0.05120    1.000
    H21      H        0.39680    0.80670    0.01770    1.000
    C18      C        0.53080    0.85920    0.93950    1.000
    H22      H        0.44610    0.81280    0.83210    1.000
    H23      H        0.59450    0.79340    0.95690    1.000
    C19      C        0.37460    0.00460    0.03370    1.000
    H24      H        0.28420    0.96360    0.92970    1.000
    H25      H        0.34120    0.02900    0.10860    1.000
    C20      C        0.67320    0.75050    0.53390    1.000
    C21      C        0.95970    0.24910    0.54850    1.000
    C22      C        0.01990    0.37630    0.53710    1.000
    H26      H        0.12610    0.37880    0.56360    1.000
    C23      C        0.01910    0.51870    0.65180    1.000
    H27      H        0.08570    0.53190    0.75820    1.000
    H28      H        0.91630    0.51550    0.63350    1.000
    C24      C        0.92650    0.35500    0.36790    1.000
    H29      H        0.93580    0.26800    0.30030    1.000
    H30      H        0.81930    0.34430    0.33630    1.000
    C25      C        0.62600    0.61300    0.54700    1.000
    H31      H        0.71090    0.60730    0.63800    1.000
    C26      C        0.56900    0.47300    0.40200    1.000
    H32      H        0.49070    0.48160    0.31160    1.000
    H33      H        0.65250    0.45000    0.38500    1.000
    C27      C        0.49700    0.64800    0.57800    1.000
    H34      H        0.53660    0.73690    0.67250    1.000
    H35      H        0.41650    0.66130    0.49230    1.000
    C28      C        0.54900    0.64400    0.51900    1.000
    C29      C        0.48500    0.51100    0.35900    1.000
    C30      C        0.61900    0.60900    0.65500    1.000
    H36      H        0.46560    0.68840    0.51860    1.000
    H37      H        0.56980    0.47870    0.35060    1.000
    H38      H        0.42830    0.53800    0.27500    1.000
    H39      H        0.71290    0.58190    0.66710    1.000
    H40      H        0.64650    0.69410    0.74950    1.000
    O14      O        0.58400    0.82000    0.44000    1.000
