# CIF file generated by openbabel 3.1.0, see https://openbabel.org
data_I
_chemical_name_common 'image0'
_cell_length_a 6.8391
_cell_length_b 21.7447
_cell_length_c 22.9299
_cell_angle_alpha 90
_cell_angle_beta 90
_cell_angle_gamma 90
_space_group_name_H-M_alt 'P 1'
_space_group_name_Hall 'P 1'
loop_
    _symmetry_equiv_pos_as_xyz
    x,y,z
loop_
    _atom_site_label
    _atom_site_type_symbol
    _atom_site_fract_x
    _atom_site_fract_y
    _atom_site_fract_z
    _atom_site_occupancy
    Gd1      Gd       0.57145    0.23258    0.04897    1.000
    O1       O        0.59390    0.30876    0.64714    1.000
    O2       O        0.55760    0.20977    0.63863    1.000
    C1       C        0.57440    0.25650    0.66996    1.000
    C2       C        0.57100    0.25050    0.73489    1.000
    C3       C        0.55890    0.19180    0.75939    1.000
    H1       H        0.55180    0.15710    0.73580    1.000
    C4       C        0.55760    0.18650    0.81923    1.000
    N1       N        0.50160    0.12470    0.84410    1.000
    O3       O        0.54410    0.11580    0.89480    1.000
    O4       O        0.43560    0.08500    0.81420    1.000
    C5       C        0.56840    0.23720    0.85553    1.000
    C6       C        0.57970    0.29510    0.83090    1.000
    H2       H        0.58580    0.32980    0.85450    1.000
    C7       C        0.58170    0.30100    0.77022    1.000
    H3       H        0.59050    0.34000    0.75360    1.000
    C8       C        0.56610    0.23345    0.92080    1.000
    O5       O        0.40740    0.22742    0.94708    1.000
    O6       O        0.72450    0.24073    0.94778    1.000
    O7       O        0.28050    0.35234    0.96363    1.000
    O8       O        0.54270    0.33506    0.01910    1.000
    C9       C        0.42310    0.36961    0.99319    1.000
    C10      C        0.45940    0.43742    0.99730    1.000
    C11      C        0.57960    0.46100    0.03990    1.000
    H4       H        0.63400    0.43460    0.06790    1.000
    C12      C        0.38170    0.47680    0.95730    1.000
    H5       H        0.30200    0.46150    0.92780    1.000
    N2       N        0.60500    0.12470    0.84290    1.000
    O9       O        0.62420    0.11850    0.89500    1.000
    O10      O        0.60360    0.08030    0.80930    1.000
    N3       N        0.59500    0.42980    0.10230    1.000
    O11      O        0.44300    0.41590    0.13540    1.000
    O12      O        0.75700    0.42230    0.11600    1.000
    Gd2      Gd       0.92855    0.76742    0.54897    1.000
    O13      O        0.90610    0.69124    0.14714    1.000
    O14      O        0.94240    0.79023    0.13863    1.000
    C13      C        0.92560    0.74350    0.16996    1.000
    C14      C        0.92900    0.74950    0.23489    1.000
    C15      C        0.94110    0.80820    0.25939    1.000
    H6       H        0.94820    0.84290    0.23580    1.000
    C16      C        0.94240    0.81350    0.31923    1.000
    N4       N        0.99840    0.87530    0.34410    1.000
    O15      O        0.95590    0.88420    0.39480    1.000
    O16      O        0.06440    0.91500    0.31420    1.000
    C17      C        0.93160    0.76280    0.35553    1.000
    C18      C        0.92030    0.70490    0.33090    1.000
    H7       H        0.91420    0.67020    0.35450    1.000
    C19      C        0.91830    0.69900    0.27022    1.000
    H8       H        0.90950    0.66000    0.25360    1.000
    C20      C        0.93390    0.76655    0.42080    1.000
    O17      O        0.09260    0.77258    0.44708    1.000
    O18      O        0.77550    0.75927    0.44778    1.000
    O19      O        0.21950    0.64766    0.46363    1.000
    O20      O        0.95730    0.66494    0.51910    1.000
    C21      C        0.07690    0.63039    0.49319    1.000
    C22      C        0.04060    0.56258    0.49730    1.000
    C23      C        0.92040    0.53900    0.53990    1.000
    H9       H        0.86600    0.56540    0.56790    1.000
    C24      C        0.11830    0.52320    0.45730    1.000
    H10      H        0.19800    0.53850    0.42780    1.000
    N5       N        0.89500    0.87530    0.34290    1.000
    O21      O        0.87580    0.88150    0.39500    1.000
    O22      O        0.89640    0.91970    0.30930    1.000
    N6       N        0.90500    0.57020    0.60230    1.000
    O23      O        0.05700    0.58410    0.63540    1.000
    O24      O        0.74300    0.57770    0.61600    1.000
    Gd3      Gd       0.42855    0.73258    0.45103    1.000
    O25      O        0.40610    0.80876    0.85286    1.000
    O26      O        0.44240    0.70977    0.86137    1.000
    C25      C        0.42560    0.75650    0.83004    1.000
    C26      C        0.42900    0.75050    0.76511    1.000
    C27      C        0.44110    0.69180    0.74061    1.000
    H11      H        0.44820    0.65710    0.76420    1.000
    C28      C        0.44240    0.68650    0.68077    1.000
    N7       N        0.49840    0.62470    0.65590    1.000
    O27      O        0.45590    0.61580    0.60520    1.000
    O28      O        0.56440    0.58500    0.68580    1.000
    C29      C        0.43160    0.73720    0.64447    1.000
    C30      C        0.42030    0.79510    0.66910    1.000
    H12      H        0.41420    0.82980    0.64550    1.000
    C31      C        0.41830    0.80100    0.72978    1.000
    H13      H        0.40950    0.84000    0.74640    1.000
    C32      C        0.43390    0.73345    0.57920    1.000
    O29      O        0.59260    0.72742    0.55292    1.000
    O30      O        0.27550    0.74073    0.55222    1.000
    O31      O        0.71950    0.85234    0.53637    1.000
    O32      O        0.45730    0.83506    0.48090    1.000
    C33      C        0.57690    0.86961    0.50681    1.000
    C34      C        0.54060    0.93742    0.50270    1.000
    C35      C        0.42040    0.96100    0.46010    1.000
    H14      H        0.36600    0.93460    0.43210    1.000
    C36      C        0.61830    0.97680    0.54270    1.000
    H15      H        0.69800    0.96150    0.57220    1.000
    N8       N        0.39500    0.62470    0.65710    1.000
    O33      O        0.37580    0.61850    0.60500    1.000
    O34      O        0.39640    0.58030    0.69070    1.000
    N9       N        0.40500    0.92980    0.39770    1.000
    O35      O        0.55700    0.91590    0.36460    1.000
    O36      O        0.24300    0.92230    0.38400    1.000
    Gd4      Gd       0.07145    0.26742    0.95103    1.000
    O37      O        0.09390    0.19124    0.35286    1.000
    O38      O        0.05760    0.29023    0.36137    1.000
    C37      C        0.07440    0.24350    0.33004    1.000
    C38      C        0.07100    0.24950    0.26511    1.000
    C39      C        0.05890    0.30820    0.24061    1.000
    H16      H        0.05180    0.34290    0.26420    1.000
    C40      C        0.05760    0.31350    0.18077    1.000
    N10      N        0.00160    0.37530    0.15590    1.000
    O39      O        0.04410    0.38420    0.10520    1.000
    O40      O        0.93560    0.41500    0.18580    1.000
    C41      C        0.06840    0.26280    0.14447    1.000
    C42      C        0.07970    0.20490    0.16910    1.000
    H17      H        0.08580    0.17020    0.14550    1.000
    C43      C        0.08170    0.19900    0.22978    1.000
    H18      H        0.09050    0.16000    0.24640    1.000
    C44      C        0.06610    0.26655    0.07920    1.000
    O41      O        0.90740    0.27258    0.05292    1.000
    O42      O        0.22450    0.25927    0.05222    1.000
    O43      O        0.78050    0.14766    0.03637    1.000
    O44      O        0.04270    0.16494    0.98090    1.000
    C45      C        0.92310    0.13039    0.00681    1.000
    C46      C        0.95940    0.06258    0.00270    1.000
    C47      C        0.07960    0.03900    0.96010    1.000
    H19      H        0.13400    0.06540    0.93210    1.000
    C48      C        0.88170    0.02320    0.04270    1.000
    H20      H        0.80200    0.03850    0.07220    1.000
    N11      N        0.10500    0.37530    0.15710    1.000
    O45      O        0.12420    0.38150    0.10500    1.000
    O46      O        0.10360    0.41970    0.19070    1.000
    N12      N        0.09500    0.07020    0.89770    1.000
    O47      O        0.94300    0.08410    0.86460    1.000
    O48      O        0.25700    0.07770    0.88400    1.000
    Gd5      Gd       0.42855    0.76742    0.95103    1.000
    O49      O        0.40610    0.69124    0.35286    1.000
    O50      O        0.44240    0.79023    0.36137    1.000
    C49      C        0.42560    0.74350    0.33004    1.000
    C50      C        0.42900    0.74950    0.26511    1.000
    C51      C        0.44110    0.80820    0.24061    1.000
    H21      H        0.44820    0.84290    0.26420    1.000
    C52      C        0.44240    0.81350    0.18077    1.000
    N13      N        0.49840    0.87530    0.15590    1.000
    O51      O        0.45590    0.88420    0.10520    1.000
    O52      O        0.56440    0.91500    0.18580    1.000
    C53      C        0.43160    0.76280    0.14447    1.000
    C54      C        0.42030    0.70490    0.16910    1.000
    H22      H        0.41420    0.67020    0.14550    1.000
    C55      C        0.41830    0.69900    0.22978    1.000
    H23      H        0.40950    0.66000    0.24640    1.000
    C56      C        0.43390    0.76655    0.07920    1.000
    O53      O        0.59260    0.77258    0.05292    1.000
    O54      O        0.27550    0.75927    0.05222    1.000
    O55      O        0.71950    0.64766    0.03637    1.000
    O56      O        0.45730    0.66494    0.98090    1.000
    C57      C        0.57690    0.63039    0.00681    1.000
    C58      C        0.54060    0.56258    0.00270    1.000
    C59      C        0.42040    0.53900    0.96010    1.000
    H24      H        0.36600    0.56540    0.93210    1.000
    C60      C        0.61830    0.52320    0.04270    1.000
    H25      H        0.69800    0.53850    0.07220    1.000
    N14      N        0.39500    0.87530    0.15710    1.000
    O57      O        0.37580    0.88150    0.10500    1.000
    O58      O        0.39640    0.91970    0.19070    1.000
    N15      N        0.40500    0.57020    0.89770    1.000
    O59      O        0.55700    0.58410    0.86460    1.000
    O60      O        0.24300    0.57770    0.88400    1.000
    Gd6      Gd       0.07145    0.23258    0.45103    1.000
    O61      O        0.09390    0.30876    0.85286    1.000
    O62      O        0.05760    0.20977    0.86137    1.000
    C61      C        0.07440    0.25650    0.83004    1.000
    C62      C        0.07100    0.25050    0.76511    1.000
    C63      C        0.05890    0.19180    0.74061    1.000
    H26      H        0.05180    0.15710    0.76420    1.000
    C64      C        0.05760    0.18650    0.68077    1.000
    N16      N        0.00160    0.12470    0.65590    1.000
    O63      O        0.04410    0.11580    0.60520    1.000
    O64      O        0.93560    0.08500    0.68580    1.000
    C65      C        0.06840    0.23720    0.64447    1.000
    C66      C        0.07970    0.29510    0.66910    1.000
    H27      H        0.08580    0.32980    0.64550    1.000
    C67      C        0.08170    0.30100    0.72978    1.000
    H28      H        0.09050    0.34000    0.74640    1.000
    C68      C        0.06610    0.23345    0.57920    1.000
    O65      O        0.90740    0.22742    0.55292    1.000
    O66      O        0.22450    0.24073    0.55222    1.000
    O67      O        0.78050    0.35234    0.53637    1.000
    O68      O        0.04270    0.33506    0.48090    1.000
    C69      C        0.92310    0.36961    0.50681    1.000
    C70      C        0.95940    0.43742    0.50270    1.000
    C71      C        0.07960    0.46100    0.46010    1.000
    H29      H        0.13400    0.43460    0.43210    1.000
    C72      C        0.88170    0.47680    0.54270    1.000
    H30      H        0.80200    0.46150    0.57220    1.000
    N17      N        0.10500    0.12470    0.65710    1.000
    O69      O        0.12420    0.11850    0.60500    1.000
    O70      O        0.10360    0.08030    0.69070    1.000
    N18      N        0.09500    0.42980    0.39770    1.000
    O71      O        0.94300    0.41590    0.36460    1.000
    O72      O        0.25700    0.42230    0.38400    1.000
    Gd7      Gd       0.57145    0.26742    0.54897    1.000
    O73      O        0.59390    0.19124    0.14714    1.000
    O74      O        0.55760    0.29023    0.13863    1.000
    C73      C        0.57440    0.24350    0.16996    1.000
    C74      C        0.57100    0.24950    0.23489    1.000
    C75      C        0.55890    0.30820    0.25939    1.000
    H31      H        0.55180    0.34290    0.23580    1.000
    C76      C        0.55760    0.31350    0.31923    1.000
    N19      N        0.50160    0.37530    0.34410    1.000
    O75      O        0.54410    0.38420    0.39480    1.000
    O76      O        0.43560    0.41500    0.31420    1.000
    C77      C        0.56840    0.26280    0.35553    1.000
    C78      C        0.57970    0.20490    0.33090    1.000
    H32      H        0.58580    0.17020    0.35450    1.000
    C79      C        0.58170    0.19900    0.27022    1.000
    H33      H        0.59050    0.16000    0.25360    1.000
    C80      C        0.56610    0.26655    0.42080    1.000
    O77      O        0.40740    0.27258    0.44708    1.000
    O78      O        0.72450    0.25927    0.44778    1.000
    O79      O        0.28050    0.14766    0.46363    1.000
    O80      O        0.54270    0.16494    0.51910    1.000
    C81      C        0.42310    0.13039    0.49319    1.000
    C82      C        0.45940    0.06258    0.49730    1.000
    C83      C        0.57960    0.03900    0.53990    1.000
    H34      H        0.63400    0.06540    0.56790    1.000
    C84      C        0.38170    0.02320    0.45730    1.000
    H35      H        0.30200    0.03850    0.42780    1.000
    N20      N        0.60500    0.37530    0.34290    1.000
    O81      O        0.62420    0.38150    0.39500    1.000
    O82      O        0.60360    0.41970    0.30930    1.000
    N21      N        0.59500    0.07020    0.60230    1.000
    O83      O        0.44300    0.08410    0.63540    1.000
    O84      O        0.75700    0.07770    0.61600    1.000
    Gd8      Gd       0.92855    0.73258    0.04897    1.000
    O85      O        0.90610    0.80876    0.64714    1.000
    O86      O        0.94240    0.70977    0.63863    1.000
    C85      C        0.92560    0.75650    0.66996    1.000
    C86      C        0.92900    0.75050    0.73489    1.000
    C87      C        0.94110    0.69180    0.75939    1.000
    H36      H        0.94820    0.65710    0.73580    1.000
    C88      C        0.94240    0.68650    0.81923    1.000
    N22      N        0.99840    0.62470    0.84410    1.000
    O87      O        0.95590    0.61580    0.89480    1.000
    O88      O        0.06440    0.58500    0.81420    1.000
    C89      C        0.93160    0.73720    0.85553    1.000
    C90      C        0.92030    0.79510    0.83090    1.000
    H37      H        0.91420    0.82980    0.85450    1.000
    C91      C        0.91830    0.80100    0.77022    1.000
    H38      H        0.90950    0.84000    0.75360    1.000
    C92      C        0.93390    0.73345    0.92080    1.000
    O89      O        0.09260    0.72742    0.94708    1.000
    O90      O        0.77550    0.74073    0.94778    1.000
    O91      O        0.21950    0.85234    0.96363    1.000
    O92      O        0.95730    0.83506    0.01910    1.000
    C93      C        0.07690    0.86961    0.99319    1.000
    C94      C        0.04060    0.93742    0.99730    1.000
    C95      C        0.92040    0.96100    0.03990    1.000
    H39      H        0.86600    0.93460    0.06790    1.000
    C96      C        0.11830    0.97680    0.95730    1.000
    H40      H        0.19800    0.96150    0.92780    1.000
    N23      N        0.89500    0.62470    0.84290    1.000
    O93      O        0.87580    0.61850    0.89500    1.000
    O94      O        0.89640    0.58030    0.80930    1.000
    N24      N        0.90500    0.92980    0.10230    1.000
    O95      O        0.05700    0.91590    0.13540    1.000
    O96      O        0.74300    0.92230    0.11600    1.000
