# CIF file generated by openbabel 3.1.0, see https://openbabel.org
data_I
_chemical_name_common 'image0'
_cell_length_a 14.988
_cell_length_b 16.101
_cell_length_c 27.404
_cell_angle_alpha 90
_cell_angle_beta 105.198
_cell_angle_gamma 90
_space_group_name_H-M_alt 'P 1'
_space_group_name_Hall 'P 1'
loop_
    _symmetry_equiv_pos_as_xyz
    x,y,z
loop_
    _atom_site_label
    _atom_site_type_symbol
    _atom_site_fract_x
    _atom_site_fract_y
    _atom_site_fract_z
    _atom_site_occupancy
    W1       W        0.56315    0.22137    0.45213    1.000
    W2       W        0.75301    0.27959    0.39359    1.000
    W3       W        0.58685    0.23087    0.57694    1.000
    W4       W        0.93512    0.36743    0.47682    1.000
    W5       W        0.90050    0.15810    0.47760    1.000
    W6       W        0.95927    0.37788    0.61186    1.000
    W7       W        0.80341    0.30110    0.66931    1.000
    W8       W        0.70890    0.09085    0.52983    1.000
    W9       W        0.92384    0.16787    0.61617    1.000
    W10      W        0.59471    0.43794    0.41966    1.000
    W11      W        0.37155    0.54824    0.39561    1.000
    Sm1      Sm       0.80210    0.56513    0.52594    1.000
    Sm2      Sm       0.65046    0.71448    0.25892    1.000
    As1      As       0.75810    0.32087    0.52866    1.000
    P1       P        0.52100    0.56430    0.32340    1.000
    P2       P        0.41450    0.40880    0.31710    1.000
    O1       O        0.68820    0.37940    0.39730    1.000
    O2       O        0.91310    0.36040    0.67180    1.000
    O3       O        0.82190    0.28320    0.48480    1.000
    O4       O        0.50080    0.37480    0.35900    1.000
    O5       O        0.93740    0.15750    0.54890    1.000
    O6       O        0.35150    0.45850    0.34270    1.000
    O7       O        0.48560    0.49470    0.42430    1.000
    O8       O        0.61800    0.11900    0.56960    1.000
    O9       O        0.40380    0.64760    0.42940    1.000
    O10      O        0.86600    0.34140    0.40750    1.000
    O11      O        0.83710    0.29240    0.58720    1.000
    O12      O        0.86880    0.45380    0.48470    1.000
    O13      O        0.44720    0.60160    0.34660    1.000
    O14      O        0.87070    0.19830    0.66980    1.000
    O15      O        0.97760    0.24480    0.47250    1.000
    O16      O        0.78460    0.10450    0.48960    1.000
    O17      O        0.51190    0.23350    0.50900    1.000
    O18      O        0.68610    0.23210    0.52630    1.000
    O19      O        0.97870    0.35350    0.54810    1.000
    O20      O        0.57620    0.34530    0.45340    1.000
    O21      O        0.65380    0.22850    0.41530    1.000
    O22      O        0.59600    0.51900    0.36500    1.000
    O23      O        0.82010    0.18060    0.41150    1.000
    O24      O        0.00450    0.25380    0.63100    1.000
    O25      O        0.80410    0.11150    0.58740    1.000
    O26      O        0.35900    0.33840    0.28330    1.000
    O27      O        0.26720    0.60070    0.35120    1.000
    O28      O        0.67300    0.49140    0.46770    1.000
    O29      O        0.88660    0.45980    0.58600    1.000
    O30      O        0.69680    0.24670    0.63320    1.000
    O31      O        0.03240    0.40820    0.46140    1.000
    O32      O        0.31210    0.49830    0.43380    1.000
    O33      O        0.56020    0.62880    0.29400    1.000
    O34      O        0.59620    0.11010    0.47170    1.000
    O35      O        0.52300    0.44300    0.25830    1.000
    H1       H        0.49640    0.40510    0.24020    1.000
    C1       C        0.46200    0.48200    0.28000    1.000
    C2       C        0.38500    0.51700    0.24170    1.000
    H2       H        0.34340    0.54430    0.25770    1.000
    H3       H        0.40860    0.55680    0.22200    1.000
    H4       H        0.35350    0.47360    0.22020    1.000
    O36      O        0.61400    0.79100    0.32000    1.000
    O37      O        0.54800    0.80900    0.30200    1.000
    W12      W        0.43685    0.72137    0.04787    1.000
    W13      W        0.24699    0.77959    0.10641    1.000
    W14      W        0.41315    0.73087    0.92306    1.000
    W15      W        0.06488    0.86743    0.02318    1.000
    W16      W        0.09950    0.65810    0.02240    1.000
    W17      W        0.04073    0.87788    0.88814    1.000
    W18      W        0.19659    0.80110    0.83069    1.000
    W19      W        0.29110    0.59085    0.97017    1.000
    W20      W        0.07616    0.66787    0.88383    1.000
    W21      W        0.40529    0.93794    0.08034    1.000
    W22      W        0.62845    0.04824    0.10439    1.000
    Sm3      Sm       0.19790    0.06513    0.97406    1.000
    Sm4      Sm       0.34954    0.21448    0.24108    1.000
    As2      As       0.24190    0.82087    0.97134    1.000
    P3       P        0.47900    0.06430    0.17660    1.000
    P4       P        0.58550    0.90880    0.18290    1.000
    O38      O        0.31180    0.87940    0.10270    1.000
    O39      O        0.08690    0.86040    0.82820    1.000
    O40      O        0.17810    0.78320    0.01520    1.000
    O41      O        0.49920    0.87480    0.14100    1.000
    O42      O        0.06260    0.65750    0.95110    1.000
    O43      O        0.64850    0.95850    0.15730    1.000
    O44      O        0.51440    0.99470    0.07570    1.000
    O45      O        0.38200    0.61900    0.93040    1.000
    O46      O        0.59620    0.14760    0.07060    1.000
    O47      O        0.13400    0.84140    0.09250    1.000
    O48      O        0.16290    0.79240    0.91280    1.000
    O49      O        0.13120    0.95380    0.01530    1.000
    O50      O        0.55280    0.10160    0.15340    1.000
    O51      O        0.12930    0.69830    0.83020    1.000
    O52      O        0.02240    0.74480    0.02750    1.000
    O53      O        0.21540    0.60450    0.01040    1.000
    O54      O        0.48810    0.73350    0.99100    1.000
    O55      O        0.31390    0.73210    0.97370    1.000
    O56      O        0.02130    0.85350    0.95190    1.000
    O57      O        0.42380    0.84530    0.04660    1.000
    O58      O        0.34620    0.72850    0.08470    1.000
    O59      O        0.40400    0.01900    0.13500    1.000
    O60      O        0.17990    0.68060    0.08850    1.000
    O61      O        0.99550    0.75380    0.86900    1.000
    O62      O        0.19590    0.61150    0.91260    1.000
    O63      O        0.64100    0.83840    0.21670    1.000
    O64      O        0.73280    0.10070    0.14880    1.000
    O65      O        0.32700    0.99140    0.03230    1.000
    O66      O        0.11340    0.95980    0.91400    1.000
    O67      O        0.30320    0.74670    0.86680    1.000
    O68      O        0.96760    0.90820    0.03860    1.000
    O69      O        0.68790    0.99830    0.06620    1.000
    O70      O        0.43980    0.12880    0.20600    1.000
    O71      O        0.40380    0.61010    0.02830    1.000
    O72      O        0.47700    0.94300    0.24170    1.000
    H5       H        0.50360    0.90510    0.25980    1.000
    C3       C        0.53800    0.98200    0.22000    1.000
    C4       C        0.61500    0.01700    0.25830    1.000
    H6       H        0.65660    0.04430    0.24230    1.000
    H7       H        0.59140    0.05680    0.27800    1.000
    H8       H        0.64650    0.97360    0.27980    1.000
    O73      O        0.38600    0.29100    0.18000    1.000
    O74      O        0.45200    0.30900    0.19800    1.000
    W23      W        0.43685    0.77863    0.54787    1.000
    W24      W        0.24699    0.72041    0.60641    1.000
    W25      W        0.41315    0.76913    0.42306    1.000
    W26      W        0.06488    0.63257    0.52318    1.000
    W27      W        0.09950    0.84190    0.52240    1.000
    W28      W        0.04073    0.62212    0.38814    1.000
    W29      W        0.19659    0.69890    0.33069    1.000
    W30      W        0.29110    0.90915    0.47017    1.000
    W31      W        0.07616    0.83213    0.38383    1.000
    W32      W        0.40529    0.56206    0.58034    1.000
    W33      W        0.62845    0.45176    0.60439    1.000
    Sm5      Sm       0.19790    0.43487    0.47406    1.000
    Sm6      Sm       0.34954    0.28552    0.74108    1.000
    As3      As       0.24190    0.67913    0.47134    1.000
    P5       P        0.47900    0.43570    0.67660    1.000
    P6       P        0.58550    0.59120    0.68290    1.000
    O75      O        0.31180    0.62060    0.60270    1.000
    O76      O        0.08690    0.63960    0.32820    1.000
    O77      O        0.17810    0.71680    0.51520    1.000
    O78      O        0.49920    0.62520    0.64100    1.000
    O79      O        0.06260    0.84250    0.45110    1.000
    O80      O        0.64850    0.54150    0.65730    1.000
    O81      O        0.51440    0.50530    0.57570    1.000
    O82      O        0.38200    0.88100    0.43040    1.000
    O83      O        0.59620    0.35240    0.57060    1.000
    O84      O        0.13400    0.65860    0.59250    1.000
    O85      O        0.16290    0.70760    0.41280    1.000
    O86      O        0.13120    0.54620    0.51530    1.000
    O87      O        0.55280    0.39840    0.65340    1.000
    O88      O        0.12930    0.80170    0.33020    1.000
    O89      O        0.02240    0.75520    0.52750    1.000
    O90      O        0.21540    0.89550    0.51040    1.000
    O91      O        0.48810    0.76650    0.49100    1.000
    O92      O        0.31390    0.76790    0.47370    1.000
    O93      O        0.02130    0.64650    0.45190    1.000
    O94      O        0.42380    0.65470    0.54660    1.000
    O95      O        0.34620    0.77150    0.58470    1.000
    O96      O        0.40400    0.48100    0.63500    1.000
    O97      O        0.17990    0.81940    0.58850    1.000
    O98      O        0.99550    0.74620    0.36900    1.000
    O99      O        0.19590    0.88850    0.41260    1.000
    O100     O        0.64100    0.66160    0.71670    1.000
    O101     O        0.73280    0.39930    0.64880    1.000
    O102     O        0.32700    0.50860    0.53230    1.000
    O103     O        0.11340    0.54020    0.41400    1.000
    O104     O        0.30320    0.75330    0.36680    1.000
    O105     O        0.96760    0.59180    0.53860    1.000
    O106     O        0.68790    0.50170    0.56620    1.000
    O107     O        0.43980    0.37120    0.70600    1.000
    O108     O        0.40380    0.88990    0.52830    1.000
    O109     O        0.47700    0.55700    0.74170    1.000
    H9       H        0.50360    0.59490    0.75980    1.000
    C5       C        0.53800    0.51800    0.72000    1.000
    C6       C        0.61500    0.48300    0.75830    1.000
    H10      H        0.65660    0.45570    0.74230    1.000
    H11      H        0.59140    0.44320    0.77800    1.000
    H12      H        0.64650    0.52640    0.77980    1.000
    O110     O        0.38600    0.20900    0.68000    1.000
    O111     O        0.45200    0.19100    0.69800    1.000
    W34      W        0.56315    0.27863    0.95213    1.000
    W35      W        0.75301    0.22041    0.89359    1.000
    W36      W        0.58685    0.26913    0.07694    1.000
    W37      W        0.93512    0.13257    0.97682    1.000
    W38      W        0.90050    0.34190    0.97760    1.000
    W39      W        0.95927    0.12212    0.11186    1.000
    W40      W        0.80341    0.19890    0.16931    1.000
    W41      W        0.70890    0.40915    0.02983    1.000
    W42      W        0.92384    0.33213    0.11617    1.000
    W43      W        0.59471    0.06206    0.91966    1.000
    W44      W        0.37155    0.95176    0.89561    1.000
    Sm7      Sm       0.80210    0.93487    0.02594    1.000
    Sm8      Sm       0.65046    0.78552    0.75892    1.000
    As4      As       0.75810    0.17913    0.02866    1.000
    P7       P        0.52100    0.93570    0.82340    1.000
    P8       P        0.41450    0.09120    0.81710    1.000
    O112     O        0.68820    0.12060    0.89730    1.000
    O113     O        0.91310    0.13960    0.17180    1.000
    O114     O        0.82190    0.21680    0.98480    1.000
    O115     O        0.50080    0.12520    0.85900    1.000
    O116     O        0.93740    0.34250    0.04890    1.000
    O117     O        0.35150    0.04150    0.84270    1.000
    O118     O        0.48560    0.00530    0.92430    1.000
    O119     O        0.61800    0.38100    0.06960    1.000
    O120     O        0.40380    0.85240    0.92940    1.000
    O121     O        0.86600    0.15860    0.90750    1.000
    O122     O        0.83710    0.20760    0.08720    1.000
    O123     O        0.86880    0.04620    0.98470    1.000
    O124     O        0.44720    0.89840    0.84660    1.000
    O125     O        0.87070    0.30170    0.16980    1.000
    O126     O        0.97760    0.25520    0.97250    1.000
    O127     O        0.78460    0.39550    0.98960    1.000
    O128     O        0.51190    0.26650    0.00900    1.000
    O129     O        0.68610    0.26790    0.02630    1.000
    O130     O        0.97870    0.14650    0.04810    1.000
    O131     O        0.57620    0.15470    0.95340    1.000
    O132     O        0.65380    0.27150    0.91530    1.000
    O133     O        0.59600    0.98100    0.86500    1.000
    O134     O        0.82010    0.31940    0.91150    1.000
    O135     O        0.00450    0.24620    0.13100    1.000
    O136     O        0.80410    0.38850    0.08740    1.000
    O137     O        0.35900    0.16160    0.78330    1.000
    O138     O        0.26720    0.89930    0.85120    1.000
    O139     O        0.67300    0.00860    0.96770    1.000
    O140     O        0.88660    0.04020    0.08600    1.000
    O141     O        0.69680    0.25330    0.13320    1.000
    O142     O        0.03240    0.09180    0.96140    1.000
    O143     O        0.31210    0.00170    0.93380    1.000
    O144     O        0.56020    0.87120    0.79400    1.000
    O145     O        0.59620    0.38990    0.97170    1.000
    O146     O        0.52300    0.05700    0.75830    1.000
    H13      H        0.49640    0.09490    0.74020    1.000
    C7       C        0.46200    0.01800    0.78000    1.000
    C8       C        0.38500    0.98300    0.74170    1.000
    H14      H        0.34340    0.95570    0.75770    1.000
    H15      H        0.40860    0.94320    0.72200    1.000
    H16      H        0.35350    0.02640    0.72020    1.000
    O147     O        0.61400    0.70900    0.82000    1.000
    O148     O        0.54800    0.69100    0.80200    1.000
