# CIF file generated by openbabel 3.1.0, see https://openbabel.org
data_I
_chemical_name_common 'image0'
_cell_length_a 8.1219
_cell_length_b 11.0982
_cell_length_c 13.7649
_cell_angle_alpha 91.3904
_cell_angle_beta 100.821
_cell_angle_gamma 103.378
_space_group_name_H-M_alt 'P 1'
_space_group_name_Hall 'P 1'
loop_
    _symmetry_equiv_pos_as_xyz
    x,y,z
loop_
    _atom_site_label
    _atom_site_type_symbol
    _atom_site_fract_x
    _atom_site_fract_y
    _atom_site_fract_z
    _atom_site_occupancy
    Cu1      Cu       0.46830    0.99910    0.81240    1.000
    Cu2      Cu       0.33680    0.15480    0.71750    1.000
    N1       N        0.49120    0.00470    0.95770    1.000
    C1       C        0.21690    0.96510    0.73840    1.000
    C2       C        0.58480    0.20230    0.77620    1.000
    C3       C        0.60530    0.90270    0.75660    1.000
    N2       N        0.26390    0.16980    0.57420    1.000
    N3       N        0.20510    0.26290    0.77520    1.000
    N4       N        0.08230    0.90080    0.70910    1.000
    C4       C        0.21690    0.18610    0.49260    1.000
    C5       C        0.11950    0.32310    0.79380    1.000
    Cu3      Cu       0.85060    0.78220    0.64570    1.000
    Cu4      Cu       0.94400    0.40370    0.82210    1.000
    N5       N        0.68960    0.85300    0.72210    1.000
    C6       C        0.86340    0.62170    0.69290    1.000
    N6       N        0.71720    0.26680    0.79830    1.000
    N7       N        0.88750    0.53660    0.73250    1.000
    C7       C        0.98550    0.47720    0.96010    1.000
    Cu5      Cu       0.53170    0.00090    0.18760    1.000
    Cu6      Cu       0.66320    0.84520    0.28250    1.000
    N8       N        0.50880    0.99530    0.04230    1.000
    C8       C        0.78310    0.03490    0.26160    1.000
    C9       C        0.41520    0.79770    0.22380    1.000
    C10      C        0.39470    0.09730    0.24340    1.000
    N9       N        0.73610    0.83020    0.42580    1.000
    N10      N        0.79490    0.73710    0.22480    1.000
    N11      N        0.91770    0.09920    0.29090    1.000
    C11      C        0.78310    0.81390    0.50740    1.000
    C12      C        0.88050    0.67690    0.20620    1.000
    Cu7      Cu       0.14940    0.21780    0.35430    1.000
    Cu8      Cu       0.05600    0.59630    0.17790    1.000
    N12      N        0.31040    0.14700    0.27790    1.000
    C13      C        0.13660    0.37830    0.30710    1.000
    N13      N        0.28280    0.73320    0.20170    1.000
    N14      N        0.11250    0.46340    0.26750    1.000
    C14      C        0.01450    0.52280    0.03990    1.000
    C15      C        0.80830    0.27310    0.53150    1.000
    N15      N        0.86790    0.10250    0.63420    1.000
    C16      C        0.74620    0.13700    0.54620    1.000
    C17      C        0.60980    0.48880    0.36110    1.000
    C18      C        0.73950    0.44670    0.43430    1.000
    C19      C        0.68760    0.31370    0.45350    1.000
    N16      N        0.55090    0.42760    0.27260    1.000
    H1       H        0.83160    0.01580    0.64430    1.000
    H2       H        0.86591    0.15101    0.69249    1.000
    H3       H        0.98302    0.12032    0.62152    1.000
    H4       H        0.63049    0.12073    0.55797    1.000
    H5       H        0.74761    0.09004    0.48700    1.000
    H6       H        0.81229    0.31981    0.59192    1.000
    H7       H        0.92178    0.28871    0.51654    1.000
    H8       H        0.68684    0.26817    0.39315    1.000
    H9       H        0.57369    0.29467    0.46798    1.000
    H10      H        0.84543    0.46081    0.41020    1.000
    H11      H        0.76018    0.48939    0.49854    1.000
    H12      H        0.51145    0.48800    0.39057    1.000
    H13      H        0.65989    0.57219    0.34726    1.000
    H14      H        0.46815    0.46427    0.23235    1.000
    H15      H        0.49678    0.34370    0.28294    1.000
    H16      H        0.64522    0.42790    0.23962    1.000
    C20      C        0.19170    0.72690    0.46850    1.000
    N17      N        0.13210    0.89750    0.36580    1.000
    C21      C        0.25380    0.86300    0.45380    1.000
    C22      C        0.39020    0.51120    0.63890    1.000
    C23      C        0.26050    0.55330    0.56570    1.000
    C24      C        0.31240    0.68630    0.54650    1.000
    N18      N        0.44910    0.57240    0.72740    1.000
    H17      H        0.16840    0.98420    0.35570    1.000
    H18      H        0.13409    0.84899    0.30751    1.000
    H19      H        0.01698    0.87968    0.37848    1.000
    H20      H        0.36951    0.87927    0.44203    1.000
    H21      H        0.25239    0.90996    0.51300    1.000
    H22      H        0.18771    0.68019    0.40808    1.000
    H23      H        0.07822    0.71129    0.48346    1.000
    H24      H        0.31316    0.73183    0.60685    1.000
    H25      H        0.42631    0.70533    0.53202    1.000
    H26      H        0.15457    0.53919    0.58980    1.000
    H27      H        0.23982    0.51061    0.50146    1.000
    H28      H        0.48855    0.51200    0.60943    1.000
    H29      H        0.34011    0.42781    0.65274    1.000
    H30      H        0.53185    0.53573    0.76765    1.000
    H31      H        0.50322    0.65630    0.71706    1.000
    H32      H        0.35478    0.57210    0.76038    1.000
