# CIF file generated by openbabel 3.1.0, see https://openbabel.org
data_I
_chemical_name_common 'image0'
_cell_length_a 7.6146
_cell_length_b 7.5144
_cell_length_c 17.75
_cell_angle_alpha 90
_cell_angle_beta 97.351
_cell_angle_gamma 90
_space_group_name_H-M_alt 'P 1'
_space_group_name_Hall 'P 1'
loop_
    _symmetry_equiv_pos_as_xyz
    x,y,z
loop_
    _atom_site_label
    _atom_site_type_symbol
    _atom_site_fract_x
    _atom_site_fract_y
    _atom_site_fract_z
    _atom_site_occupancy
    Co1      Co       0.37927    0.44264    0.13809    1.000
    Co2      Co       0.72532    0.68016    0.19338    1.000
    P1       P        0.55099    0.06759    0.18833    1.000
    H1       H        0.66280    0.13290    0.19910    1.000
    O1       O        0.42820    0.18030    0.13365    1.000
    O2       O        0.20880    0.65390    0.12222    1.000
    O3       O        0.59880    0.53420    0.09315    1.000
    O4       O        0.47600    0.04490    0.26435    1.000
    O5       O        0.70250    0.59010    0.98324    1.000
    O6       O        0.16280    0.35660    0.20223    1.000
    O7       O        0.59260    0.89290    0.15336    1.000
    O8       O        0.94300    0.74830    0.14110    1.000
    O9       O        0.89930    0.46510    0.22607    1.000
    C1       C        0.58860    0.53680    0.02128    1.000
    C2       C        0.04010    0.47110    0.19715    1.000
    C3       C        0.06670    0.63830    0.14928    1.000
    Co3      Co       0.62073    0.94264    0.36191    1.000
    Co4      Co       0.27468    0.18016    0.30662    1.000
    P2       P        0.44901    0.56759    0.31167    1.000
    H2       H        0.33720    0.63290    0.30090    1.000
    O10      O        0.57180    0.68030    0.36635    1.000
    O11      O        0.79120    0.15390    0.37778    1.000
    O12      O        0.40120    0.03420    0.40685    1.000
    O13      O        0.52400    0.54490    0.23565    1.000
    O14      O        0.29750    0.09010    0.51676    1.000
    O15      O        0.83720    0.85660    0.29777    1.000
    O16      O        0.40740    0.39290    0.34664    1.000
    O17      O        0.05700    0.24830    0.35890    1.000
    O18      O        0.10070    0.96510    0.27393    1.000
    C4       C        0.41140    0.03680    0.47872    1.000
    C5       C        0.95990    0.97110    0.30285    1.000
    C6       C        0.93330    0.13830    0.35072    1.000
    Co5      Co       0.62073    0.55736    0.86191    1.000
    Co6      Co       0.27468    0.31984    0.80662    1.000
    P3       P        0.44901    0.93241    0.81167    1.000
    H3       H        0.33720    0.86710    0.80090    1.000
    O19      O        0.57180    0.81970    0.86635    1.000
    O20      O        0.79120    0.34610    0.87778    1.000
    O21      O        0.40120    0.46580    0.90685    1.000
    O22      O        0.52400    0.95510    0.73565    1.000
    O23      O        0.29750    0.40990    0.01676    1.000
    O24      O        0.83720    0.64340    0.79777    1.000
    O25      O        0.40740    0.10710    0.84664    1.000
    O26      O        0.05700    0.25170    0.85890    1.000
    O27      O        0.10070    0.53490    0.77393    1.000
    C7       C        0.41140    0.46320    0.97872    1.000
    C8       C        0.95990    0.52890    0.80285    1.000
    C9       C        0.93330    0.36170    0.85072    1.000
    Co7      Co       0.37927    0.05736    0.63809    1.000
    Co8      Co       0.72532    0.81984    0.69338    1.000
    P4       P        0.55099    0.43241    0.68833    1.000
    H4       H        0.66280    0.36710    0.69910    1.000
    O28      O        0.42820    0.31970    0.63365    1.000
    O29      O        0.20880    0.84610    0.62222    1.000
    O30      O        0.59880    0.96580    0.59315    1.000
    O31      O        0.47600    0.45510    0.76435    1.000
    O32      O        0.70250    0.90990    0.48324    1.000
    O33      O        0.16280    0.14340    0.70223    1.000
    O34      O        0.59260    0.60710    0.65336    1.000
    O35      O        0.94300    0.75170    0.64110    1.000
    O36      O        0.89930    0.03490    0.72607    1.000
    C10      C        0.58860    0.96320    0.52128    1.000
    C11      C        0.04010    0.02890    0.69715    1.000
    C12      C        0.06670    0.86170    0.64928    1.000
