# CIF file generated by openbabel 3.1.0, see https://openbabel.org
data_I
_chemical_name_common 'image0'
_cell_length_a 15.813
_cell_length_b 18.213
_cell_length_c 27.961
_cell_angle_alpha 104.736
_cell_angle_beta 91.538
_cell_angle_gamma 107.955
_space_group_name_H-M_alt 'P 1'
_space_group_name_Hall 'P 1'
loop_
    _symmetry_equiv_pos_as_xyz
    x,y,z
loop_
    _atom_site_label
    _atom_site_type_symbol
    _atom_site_fract_x
    _atom_site_fract_y
    _atom_site_fract_z
    _atom_site_occupancy
    Cd1      Cd       0.35875    0.14671    0.74135    1.000
    Cd2      Cd       0.16982    0.23356    0.73177    1.000
    Cd3      Cd       0.02269    0.36610    0.78257    1.000
    O1       O        0.31490    0.32690    0.76580    1.000
    O2       O        0.42370    0.27570    0.76520    1.000
    O3       O        0.83560    0.70190    0.18460    1.000
    O4       O        0.93320    0.64600    0.14670    1.000
    O5       O        0.24300    0.03280    0.74710    1.000
    O6       O        0.22390    0.15540    0.77570    1.000
    O7       O        0.47450    0.10130    0.74300    1.000
    O8       O        0.42590    0.12970    0.81650    1.000
    O9       O        0.63930    0.71590    0.82350    1.000
    O10      O        0.82400    0.85490    0.97850    1.000
    O11      O        0.61330    0.87280    0.88960    1.000
    O12      O        0.90100    0.84290    0.87630    1.000
    O13      O        0.47360    0.66220    0.63650    1.000
    O14      O        0.77010    0.64890    0.63770    1.000
    O15      O        0.59710    0.65080    0.53120    1.000
    O16      O        0.69550    0.80420    0.70180    1.000
    O17      O        0.14970    0.47630    0.77560    1.000
    O18      O        0.13810    0.35560    0.73202    1.000
    O19      O        0.91540    0.42730    0.78780    1.000
    O20      O        0.96580    0.40420    0.71400    1.000
    O21      O        0.02060    0.19570    0.74890    1.000
    O22      O        0.91170    0.24760    0.75010    1.000
    O23      O        0.72850    0.78870    0.32470    1.000
    O24      O        0.64920    0.87270    0.34030    1.000
    C1       C        0.39580    0.33440    0.77480    1.000
    C2       C        0.46110    0.41520    0.79930    1.000
    C3       C        0.54450    0.42150    0.81990    1.000
    H1       H        0.56010    0.37520    0.81590    1.000
    C4       C        0.60530    0.49480    0.84610    1.000
    H2       H        0.66000    0.49660    0.86030    1.000
    C5       C        0.58590    0.56710    0.85190    1.000
    C6       C        0.50080    0.55930    0.82820    1.000
    H3       H        0.48650    0.60540    0.82870    1.000
    C7       C        0.43980    0.48550    0.80480    1.000
    H4       H        0.38320    0.48230    0.79240    1.000
    C8       C        0.64630    0.64300    0.88390    1.000
    C9       C        0.68230    0.64410    0.92870    1.000
    H5       H        0.66730    0.59650    0.93800    1.000
    C10      C        0.74070    0.71340    0.96150    1.000
    C11      C        0.76210    0.78430    0.94710    1.000
    C12      C        0.72940    0.78470    0.90210    1.000
    C13      C        0.67380    0.71560    0.87070    1.000
    C14      C        0.77630    0.70910    0.01130    1.000
    C15      C        0.73480    0.72060    0.05330    1.000
    H6       H        0.68340    0.73530    0.05310    1.000
    C16      C        0.76830    0.71040    0.09560    1.000
    H7       H        0.73780    0.71840    0.12340    1.000
    C17      C        0.83980    0.69050    0.10030    1.000
    C18      C        0.88680    0.68590    0.06150    1.000
    H8       H        0.94190    0.67830    0.06470    1.000
    C19      C        0.85470    0.69240    0.01520    1.000
    H9       H        0.88660    0.68540    0.98790    1.000
    C20      C        0.87230    0.67460    0.14510    1.000
    C21      C        0.69620    0.69950    0.78540    1.000
    H10      H        0.66860    0.69720    0.75380    1.000
    H11      H        0.70470    0.64900    0.78380    1.000
    H12      H        0.75310    0.74140    0.79330    1.000
    C22      C        0.79460    0.90180    0.01840    1.000
    H13      H        0.82510    0.95770    0.02190    1.000
    H14      H        0.80750    0.88920    0.04850    1.000
    H15      H        0.73130    0.89060    0.01210    1.000
    C23      C        0.75830    0.85880    0.88400    1.000
    C24      C        0.84750    0.88650    0.87170    1.000
    C25      C        0.87360    0.95350    0.85270    1.000
    C26      C        0.81290    0.99050    0.84700    1.000
    H16      H        0.83160    0.03610    0.83560    1.000
    C27      C        0.72450    0.96480    0.85710    1.000
    C28      C        0.70150    0.90070    0.87740    1.000
    C29      C        0.98320    0.88570    0.91080    1.000
    H17      H        0.01490    0.84920    0.91270    1.000
    H18      H        0.96810    0.90740    0.94320    1.000
    H19      H        0.02030    0.92860    0.89900    1.000
    C30      C        0.53500    0.82890    0.84920    1.000
    H20      H        0.48310    0.80430    0.86370    1.000
    H21      H        0.54940    0.78820    0.82480    1.000
    H22      H        0.52290    0.86630    0.83350    1.000
    C31      C        0.96350    0.98180    0.83430    1.000
    C32      C        0.99450    0.92940    0.79990    1.000
    H23      H        0.96390    0.87450    0.79090    1.000
    C33      C        0.07200    0.95980    0.77890    1.000
    H24      H        0.09400    0.92490    0.75640    1.000
    C34      C        0.11680    0.04250    0.79130    1.000
    C35      C        0.08460    0.09430    0.82740    1.000
    H25      H        0.11500    0.14930    0.83690    1.000
    C36      C        0.00920    0.06390    0.84840    1.000
    H26      H        0.98840    0.09820    0.87210    1.000
    C37      C        0.19960    0.07530    0.76960    1.000
    C38      C        0.66150    0.00590    0.84350    1.000
    C39      C        0.66640    0.02150    0.79790    1.000
    H27      H        0.70990    0.00960    0.77850    1.000
    C40      C        0.60940    0.05380    0.78020    1.000
    H28      H        0.61330    0.06300    0.74900    1.000
    C41      C        0.54470    0.07310    0.80950    1.000
    C42      C        0.54230    0.06120    0.85550    1.000
    H29      H        0.50180    0.07610    0.87610    1.000
    C43      C        0.60230    0.02540    0.87220    1.000
    H30      H        0.59960    0.01590    0.90340    1.000
    C44      C        0.47680    0.10460    0.78970    1.000
    C45      C        0.17420    0.43210    0.74480    1.000
    C46      C        0.25620    0.46720    0.71870    1.000
    C47      C        0.28680    0.41910    0.68590    1.000
    H31      H        0.25470    0.36450    0.67600    1.000
    C48      C        0.36550    0.44680    0.66550    1.000
    H32      H        0.38470    0.41160    0.64150    1.000
    C49      C        0.41580    0.52920    0.68180    1.000
    C50      C        0.37930    0.58000    0.71370    1.000
    H33      H        0.40800    0.63530    0.72200    1.000
    C51      C        0.30180    0.55000    0.73310    1.000
    H34      H        0.27950    0.58450    0.75580    1.000
    C52      C        0.50490    0.55860    0.66650    1.000
    C53      C        0.56880    0.52490    0.67660    1.000
    H35      H        0.55110    0.48020    0.68880    1.000
    C54      C        0.65960    0.55580    0.66900    1.000
    C55      C        0.68260    0.61770    0.64760    1.000
    C56      C        0.62160    0.65450    0.63630    1.000
    C57      C        0.53350    0.62340    0.64550    1.000
    C58      C        0.40680    0.61830    0.59340    1.000
    H36      H        0.37060    0.65040    0.58900    1.000
    H37      H        0.36950    0.56890    0.59850    1.000
    H38      H        0.43640    0.60680    0.56420    1.000
    C59      C        0.83340    0.69890    0.67880    1.000
    H39      H        0.89230    0.71140    0.66830    1.000
    H40      H        0.83100    0.67150    0.70410    1.000
    H41      H        0.82000    0.74760    0.69180    1.000
    C60      C        0.72180    0.51850    0.68510    1.000
    C61      C        0.71650    0.50320    0.73190    1.000
    H42      H        0.67080    0.51140    0.75050    1.000
    C62      C        0.78110    0.47500    0.75050    1.000
    H43      H        0.77910    0.46750    0.78220    1.000
    C63      C        0.84600    0.45890    0.72290    1.000
    C64      C        0.85130    0.47040    0.67470    1.000
    H44      H        0.89490    0.45880    0.65530    1.000
    C65      C        0.78600    0.50110    0.65700    1.000
    H45      H        0.78780    0.50910    0.62540    1.000
    C66      C        0.91290    0.42800    0.74320    1.000
    C67      C        0.64970    0.72640    0.61750    1.000
    C68      C        0.68650    0.80160    0.65150    1.000
    C69      C        0.71130    0.87250    0.63740    1.000
    C70      C        0.69700    0.86510    0.58740    1.000
    H46      H        0.71130    0.91200    0.57740    1.000
    C71      C        0.66300    0.79320    0.55140    1.000
    C72      C        0.64000    0.72290    0.56780    1.000
    C73      C        0.62440    0.82260    0.72850    1.000
    H47      H        0.63690    0.82720    0.76320    1.000
    H48      H        0.56880    0.78050    0.71530    1.000
    H49      H        0.62010    0.87250    0.72500    1.000
    C74      C        0.63680    0.58950    0.52530    1.000
    H50      H        0.62680    0.55890    0.49100    1.000
    H51      H        0.61060    0.55490    0.54550    1.000
    H52      H        0.70000    0.61340    0.53550    1.000
    C75      C        0.76130    0.95350    0.67100    1.000
    C76      C        0.83500    0.96560    0.70450    1.000
    H53      H        0.84400    0.92160    0.71210    1.000
    C77      C        0.89380    0.04040    0.72600    1.000
    H54      H        0.94710    0.04630    0.74380    1.000
    C78      C        0.87450    0.10830    0.72150    1.000
    C79      C        0.79580    0.09760    0.69240    1.000
    H55      H        0.78000    0.14200    0.69040    1.000
    C80      C        0.74130    0.02060    0.66650    1.000
    H56      H        0.69090    0.01410    0.64590    1.000
    C81      C        0.93990    0.18910    0.74100    1.000
    C82      C        0.65860    0.79370    0.49870    1.000
    C83      C        0.70540    0.75270    0.46500    1.000
    H57      H        0.73050    0.71780    0.47430    1.000
    C84      C        0.71350    0.76440    0.41930    1.000
    H58      H        0.74610    0.73850    0.39800    1.000
    C85      C        0.67460    0.81420    0.40290    1.000
    C86      C        0.62590    0.85170    0.43530    1.000
    H59      H        0.59710    0.88340    0.42490    1.000
    C87      C        0.61950    0.84290    0.48260    1.000
    H60      H        0.58860    0.87040    0.50400    1.000
    C88      C        0.68560    0.82690    0.35270    1.000
    Sm1      Sm       0.83018    0.76644    0.26823    1.000
    Cd4      Cd       0.64125    0.85329    0.25865    1.000
    Cd5      Cd       0.97731    0.63390    0.21743    1.000
    O25      O        0.68510    0.67310    0.23420    1.000
    O26      O        0.57630    0.72430    0.23480    1.000
    O27      O        0.16440    0.29810    0.81540    1.000
    O28      O        0.06680    0.35400    0.85330    1.000
    O29      O        0.75700    0.96720    0.25290    1.000
    O30      O        0.77610    0.84460    0.22430    1.000
    O31      O        0.52550    0.89870    0.25700    1.000
    O32      O        0.57410    0.87030    0.18350    1.000
    O33      O        0.36070    0.28410    0.17650    1.000
    O34      O        0.17600    0.14510    0.02150    1.000
    O35      O        0.38670    0.12720    0.11040    1.000
    O36      O        0.09900    0.15710    0.12370    1.000
    O37      O        0.52640    0.33780    0.36350    1.000
    O38      O        0.22990    0.35110    0.36230    1.000
    O39      O        0.40290    0.34920    0.46880    1.000
    O40      O        0.30450    0.19580    0.29820    1.000
    O41      O        0.85030    0.52370    0.22440    1.000
    O42      O        0.86190    0.64440    0.26798    1.000
    O43      O        0.08460    0.57270    0.21220    1.000
    O44      O        0.03420    0.59580    0.28600    1.000
    O45      O        0.97940    0.80430    0.25110    1.000
    O46      O        0.08830    0.75240    0.24990    1.000
    O47      O        0.27150    0.21130    0.67530    1.000
    O48      O        0.35080    0.12730    0.65970    1.000
    C89      C        0.60420    0.66560    0.22520    1.000
    C90      C        0.53890    0.58480    0.20070    1.000
    C91      C        0.45550    0.57850    0.18010    1.000
    H61      H        0.43990    0.62480    0.18410    1.000
    C92      C        0.39470    0.50520    0.15390    1.000
    H62      H        0.34000    0.50340    0.13970    1.000
    C93      C        0.41410    0.43290    0.14810    1.000
    C94      C        0.49920    0.44070    0.17180    1.000
    H63      H        0.51350    0.39460    0.17130    1.000
    C95      C        0.56020    0.51450    0.19520    1.000
    H64      H        0.61680    0.51770    0.20760    1.000
    C96      C        0.35370    0.35700    0.11610    1.000
    C97      C        0.31770    0.35590    0.07130    1.000
    H65      H        0.33270    0.40350    0.06200    1.000
    C98      C        0.25930    0.28660    0.03850    1.000
    C99      C        0.23790    0.21570    0.05290    1.000
    C100     C        0.27060    0.21530    0.09790    1.000
    C101     C        0.32620    0.28440    0.12930    1.000
    C102     C        0.22370    0.29090    0.98870    1.000
    C103     C        0.26520    0.27940    0.94670    1.000
    H66      H        0.31660    0.26470    0.94690    1.000
    C104     C        0.23170    0.28960    0.90440    1.000
    H67      H        0.26220    0.28160    0.87660    1.000
    C105     C        0.16020    0.30950    0.89970    1.000
    C106     C        0.11320    0.31410    0.93850    1.000
    H68      H        0.05810    0.32170    0.93530    1.000
    C107     C        0.14530    0.30760    0.98480    1.000
    H69      H        0.11340    0.31460    0.01210    1.000
    C108     C        0.12770    0.32540    0.85490    1.000
    C109     C        0.30380    0.30050    0.21460    1.000
    H70      H        0.33140    0.30280    0.24620    1.000
    H71      H        0.29530    0.35100    0.21620    1.000
    H72      H        0.24690    0.25860    0.20670    1.000
    C110     C        0.20540    0.09820    0.98160    1.000
    H73      H        0.17490    0.04230    0.97810    1.000
    H74      H        0.19250    0.11080    0.95150    1.000
    H75      H        0.26870    0.10940    0.98790    1.000
    C111     C        0.24170    0.14120    0.11600    1.000
    C112     C        0.15250    0.11350    0.12830    1.000
    C113     C        0.12640    0.04650    0.14730    1.000
    C114     C        0.18710    0.00950    0.15300    1.000
    H76      H        0.16840    0.96390    0.16440    1.000
    C115     C        0.27550    0.03520    0.14290    1.000
    C116     C        0.29850    0.09930    0.12260    1.000
    C117     C        0.01680    0.11430    0.08920    1.000
    H77      H        0.98510    0.15080    0.08730    1.000
    H78      H        0.03190    0.09260    0.05680    1.000
    H79      H        0.97970    0.07140    0.10100    1.000
    C118     C        0.46500    0.17110    0.15080    1.000
    H80      H        0.51690    0.19570    0.13630    1.000
    H81      H        0.45060    0.21180    0.17520    1.000
    H82      H        0.47710    0.13370    0.16650    1.000
    C119     C        0.03650    0.01820    0.16570    1.000
    C120     C        0.00550    0.07060    0.20010    1.000
    H83      H        0.03610    0.12550    0.20910    1.000
    C121     C        0.92800    0.04020    0.22110    1.000
    H84      H        0.90600    0.07510    0.24360    1.000
    C122     C        0.88320    0.95750    0.20870    1.000
    C123     C        0.91540    0.90570    0.17260    1.000
    H85      H        0.88500    0.85070    0.16310    1.000
    C124     C        0.99080    0.93610    0.15160    1.000
    H86      H        0.01160    0.90180    0.12790    1.000
    C125     C        0.80040    0.92470    0.23040    1.000
    C126     C        0.33850    0.99410    0.15650    1.000
    C127     C        0.33360    0.97850    0.20210    1.000
    H87      H        0.29010    0.99040    0.22150    1.000
    C128     C        0.39060    0.94620    0.21980    1.000
    H88      H        0.38670    0.93700    0.25100    1.000
    C129     C        0.45530    0.92690    0.19050    1.000
    C130     C        0.45770    0.93880    0.14450    1.000
    H89      H        0.49820    0.92390    0.12390    1.000
    C131     C        0.39770    0.97460    0.12780    1.000
    H90      H        0.40040    0.98410    0.09660    1.000
    C132     C        0.52320    0.89540    0.21030    1.000
    C133     C        0.82580    0.56790    0.25520    1.000
    C134     C        0.74380    0.53280    0.28130    1.000
    C135     C        0.71320    0.58090    0.31410    1.000
    H91      H        0.74530    0.63550    0.32400    1.000
    C136     C        0.63450    0.55320    0.33450    1.000
    H92      H        0.61530    0.58840    0.35850    1.000
    C137     C        0.58420    0.47080    0.31820    1.000
    C138     C        0.62070    0.42000    0.28630    1.000
    H93      H        0.59200    0.36470    0.27800    1.000
    C139     C        0.69820    0.45000    0.26690    1.000
    H94      H        0.72050    0.41550    0.24420    1.000
    C140     C        0.49510    0.44140    0.33350    1.000
    C141     C        0.43120    0.47510    0.32340    1.000
    H95      H        0.44890    0.51980    0.31120    1.000
    C142     C        0.34040    0.44420    0.33100    1.000
    C143     C        0.31740    0.38230    0.35240    1.000
    C144     C        0.37840    0.34550    0.36370    1.000
    C145     C        0.46650    0.37660    0.35450    1.000
    C146     C        0.59320    0.38170    0.40660    1.000
    H96      H        0.62940    0.34960    0.41100    1.000
    H97      H        0.63050    0.43110    0.40150    1.000
    H98      H        0.56360    0.39320    0.43580    1.000
    C147     C        0.16660    0.30110    0.32120    1.000
    H99      H        0.10770    0.28860    0.33170    1.000
    H100     H        0.16900    0.32850    0.29590    1.000
    H101     H        0.18000    0.25240    0.30820    1.000
    C148     C        0.27820    0.48150    0.31490    1.000
    C149     C        0.28350    0.49680    0.26810    1.000
    H102     H        0.32920    0.48860    0.24950    1.000
    C150     C        0.21890    0.52500    0.24950    1.000
    H103     H        0.22090    0.53250    0.21780    1.000
    C151     C        0.15400    0.54110    0.27710    1.000
    C152     C        0.14870    0.52960    0.32530    1.000
    H104     H        0.10510    0.54120    0.34470    1.000
    C153     C        0.21400    0.49890    0.34300    1.000
    H105     H        0.21220    0.49090    0.37460    1.000
    C154     C        0.08710    0.57200    0.25680    1.000
    C155     C        0.35030    0.27360    0.38250    1.000
    C156     C        0.31350    0.19840    0.34850    1.000
    C157     C        0.28870    0.12750    0.36260    1.000
    C158     C        0.30300    0.13490    0.41260    1.000
    H106     H        0.28870    0.08800    0.42260    1.000
    C159     C        0.33700    0.20680    0.44860    1.000
    C160     C        0.36000    0.27710    0.43220    1.000
    C161     C        0.37560    0.17740    0.27150    1.000
    H107     H        0.36310    0.17280    0.23680    1.000
    H108     H        0.43120    0.21950    0.28470    1.000
    H109     H        0.37990    0.12750    0.27500    1.000
    C162     C        0.36320    0.41050    0.47470    1.000
    H110     H        0.37320    0.44110    0.50900    1.000
    H111     H        0.38940    0.44510    0.45450    1.000
    H112     H        0.30000    0.38660    0.46450    1.000
    C163     C        0.23870    0.04650    0.32900    1.000
    C164     C        0.16500    0.03440    0.29550    1.000
    H113     H        0.15600    0.07840    0.28790    1.000
    C165     C        0.10620    0.95960    0.27400    1.000
    H114     H        0.05290    0.95370    0.25620    1.000
    C166     C        0.12550    0.89170    0.27850    1.000
    C167     C        0.20420    0.90240    0.30760    1.000
    H115     H        0.22000    0.85800    0.30960    1.000
    C168     C        0.25870    0.97940    0.33350    1.000
    H116     H        0.30910    0.98590    0.35410    1.000
    C169     C        0.06010    0.81090    0.25900    1.000
    C170     C        0.34140    0.20630    0.50130    1.000
    C171     C        0.29460    0.24730    0.53500    1.000
    H117     H        0.26950    0.28220    0.52570    1.000
    C172     C        0.28650    0.23560    0.58070    1.000
    H118     H        0.25390    0.26150    0.60200    1.000
    C173     C        0.32540    0.18580    0.59710    1.000
    C174     C        0.37410    0.14830    0.56470    1.000
    H119     H        0.40290    0.11660    0.57510    1.000
    C175     C        0.38050    0.15710    0.51740    1.000
    H120     H        0.41140    0.12960    0.49600    1.000
    C176     C        0.31440    0.17310    0.64730    1.000
