# CIF file generated by openbabel 3.1.0, see https://openbabel.org
data_I
_chemical_name_common 'image0'
_cell_length_a 9.75
_cell_length_b 9.88
_cell_length_c 9.88
_cell_angle_alpha 90.36
_cell_angle_beta 92.73
_cell_angle_gamma 117.33
_space_group_name_H-M_alt 'P 1'
_space_group_name_Hall 'P 1'
loop_
    _symmetry_equiv_pos_as_xyz
    x,y,z
loop_
    _atom_site_label
    _atom_site_type_symbol
    _atom_site_fract_x
    _atom_site_fract_y
    _atom_site_fract_z
    _atom_site_occupancy
    Cd1      Cd       0.44337    0.27475    0.97813    1.000
    O1       O        0.41760    0.22150    0.75140    1.000
    O2       O        0.56440    0.13660    0.85790    1.000
    O3       O        0.63970    0.52390    0.92090    1.000
    O4       O        0.78980    0.72300    0.05190    1.000
    N1       N        0.59210    0.32350    0.17540    1.000
    C1       C        0.49490    0.14930    0.75230    1.000
    C2       C        0.50160    0.07470    0.62100    1.000
    C3       C        0.40210    0.06470    0.51180    1.000
    C4       C        0.59890    0.00920    0.60820    1.000
    C5       C        0.76530    0.60280    0.98810    1.000
    C6       C        0.88900    0.55170    0.99310    1.000
    C7       C        0.88030    0.44150    0.90110    1.000
    C8       C        0.99000    0.38920    0.90750    1.000
    C9       C        0.60590    0.42840    0.26910    1.000
    C10      C        0.70920    0.46750    0.38180    1.000
    C11      C        0.80170    0.39690    0.40050    1.000
    C12      C        0.78680    0.28830    0.30480    1.000
    C13      C        0.68210    0.25470    0.19420    1.000
    C14      C        0.91930    0.44000    0.51960    1.000
    H1       H        0.32770    0.11230    0.51780    1.000
    H2       H        0.66230    0.01270    0.68720    1.000
    H3       H        0.79310    0.40000    0.82970    1.000
    H4       H        0.99690    0.32640    0.83960    1.000
    H5       H        0.54290    0.47810    0.25790    1.000
    H6       H        0.70200    0.54270    0.44330    1.000
    H7       H        0.84480    0.23350    0.30670    1.000
    H8       H        0.67370    0.17980    0.12920    1.000
    H9       H        0.93460    0.34150    0.54270    1.000
    H10      H        0.89400    0.49140    0.59250    1.000
    Cd2      Cd       0.55663    0.72525    0.02187    1.000
    O5       O        0.58240    0.77850    0.24860    1.000
    O6       O        0.43560    0.86340    0.14210    1.000
    O7       O        0.36030    0.47610    0.07910    1.000
    O8       O        0.21020    0.27700    0.94810    1.000
    N2       N        0.40790    0.67650    0.82460    1.000
    C15      C        0.50510    0.85070    0.24770    1.000
    C16      C        0.49840    0.92530    0.37900    1.000
    C17      C        0.59790    0.93530    0.48820    1.000
    C18      C        0.40110    0.99080    0.39180    1.000
    C19      C        0.23470    0.39720    0.01190    1.000
    C20      C        0.11100    0.44830    0.00690    1.000
    C21      C        0.11970    0.55850    0.09890    1.000
    C22      C        0.01000    0.61080    0.09250    1.000
    C23      C        0.39410    0.57160    0.73090    1.000
    C24      C        0.29080    0.53250    0.61820    1.000
    C25      C        0.19830    0.60310    0.59950    1.000
    C26      C        0.21320    0.71170    0.69520    1.000
    C27      C        0.31790    0.74530    0.80580    1.000
    C28      C        0.08070    0.56000    0.48040    1.000
    H11      H        0.67230    0.88770    0.48220    1.000
    H12      H        0.33770    0.98730    0.31280    1.000
    H13      H        0.20690    0.60000    0.17030    1.000
    H14      H        0.00310    0.67360    0.16040    1.000
    H15      H        0.45710    0.52190    0.74210    1.000
    H16      H        0.29800    0.45730    0.55670    1.000
    H17      H        0.15520    0.76650    0.69330    1.000
    H18      H        0.32630    0.82020    0.87080    1.000
    H19      H        0.06540    0.65850    0.45730    1.000
    H20      H        0.10600    0.50860    0.40750    1.000
