# CIF file generated by openbabel 3.1.0, see https://openbabel.org
data_I
_chemical_name_common 'image0'
_cell_length_a 8.7383
_cell_length_b 18.1604
_cell_length_c 6.7072
_cell_angle_alpha 90
_cell_angle_beta 90
_cell_angle_gamma 90
_space_group_name_H-M_alt 'P 1'
_space_group_name_Hall 'P 1'
loop_
    _symmetry_equiv_pos_as_xyz
    x,y,z
loop_
    _atom_site_label
    _atom_site_type_symbol
    _atom_site_fract_x
    _atom_site_fract_y
    _atom_site_fract_z
    _atom_site_occupancy
    Dy1      Dy       0.74415    0.60554    0.40591    1.000
    O1       O        0.72150    0.65410    0.73730    1.000
    O2       O        0.85410    0.51034    0.22380    1.000
    O3       O        0.65410    0.50168    0.59360    1.000
    O4       O        0.10311    0.78412    0.40820    1.000
    C1       C        0.98670    0.75330    0.34310    1.000
    H1       H        0.92950    0.77790    0.24720    1.000
    C2       C        0.52890    0.47807    0.64670    1.000
    H2       H        0.44600    0.50170    0.58790    1.000
    C3       C        0.98400    0.49590    0.16250    1.000
    H3       H        0.05530    0.53380    0.17040    1.000
    C4       C        0.73810    0.62219    0.90180    1.000
    H4       H        0.73920    0.57100    0.89960    1.000
    O5       O        0.03020    0.43759    0.09250    1.000
    O6       O        0.49390    0.42954    0.76200    1.000
    O7       O        0.94174    0.69171    0.39780    1.000
    O8       O        0.75300    0.65180    0.06560    1.000
    Dy2      Dy       0.25585    0.39446    0.90591    1.000
    O9       O        0.27850    0.34590    0.23730    1.000
    O10      O        0.14590    0.48966    0.72380    1.000
    O11      O        0.34590    0.49832    0.09360    1.000
    O12      O        0.89689    0.21588    0.90820    1.000
    C5       C        0.01330    0.24670    0.84310    1.000
    H5       H        0.07050    0.22210    0.74720    1.000
    C6       C        0.47110    0.52193    0.14670    1.000
    H6       H        0.55400    0.49830    0.08790    1.000
    C7       C        0.01600    0.50410    0.66250    1.000
    H7       H        0.94470    0.46620    0.67040    1.000
    C8       C        0.26190    0.37781    0.40180    1.000
    H8       H        0.26080    0.42900    0.39960    1.000
    O13      O        0.96980    0.56241    0.59250    1.000
    O14      O        0.50610    0.57046    0.26200    1.000
    O15      O        0.05826    0.30829    0.89780    1.000
    O16      O        0.24700    0.34820    0.56560    1.000
    Dy3      Dy       0.24415    0.89446    0.40591    1.000
    O17      O        0.22150    0.84590    0.73730    1.000
    O18      O        0.35410    0.98966    0.22380    1.000
    O19      O        0.15410    0.99832    0.59360    1.000
    O20      O        0.60311    0.71588    0.40820    1.000
    C9       C        0.48670    0.74670    0.34310    1.000
    H9       H        0.42950    0.72210    0.24720    1.000
    C10      C        0.02890    0.02193    0.64670    1.000
    H10      H        0.94600    0.99830    0.58790    1.000
    C11      C        0.48400    0.00410    0.16250    1.000
    H11      H        0.55530    0.96620    0.17040    1.000
    C12      C        0.23810    0.87781    0.90180    1.000
    H12      H        0.23920    0.92900    0.89960    1.000
    O21      O        0.53020    0.06241    0.09250    1.000
    O22      O        0.99390    0.07046    0.76200    1.000
    O23      O        0.44174    0.80829    0.39780    1.000
    O24      O        0.25300    0.84820    0.06560    1.000
    Dy4      Dy       0.75585    0.10554    0.90591    1.000
    O25      O        0.77850    0.15410    0.23730    1.000
    O26      O        0.64590    0.01034    0.72380    1.000
    O27      O        0.84590    0.00168    0.09360    1.000
    O28      O        0.39689    0.28412    0.90820    1.000
    C13      C        0.51330    0.25330    0.84310    1.000
    H13      H        0.57050    0.27790    0.74720    1.000
    C14      C        0.97110    0.97807    0.14670    1.000
    H14      H        0.05400    0.00170    0.08790    1.000
    C15      C        0.51600    0.99590    0.66250    1.000
    H15      H        0.44470    0.03380    0.67040    1.000
    C16      C        0.76190    0.12219    0.40180    1.000
    H16      H        0.76080    0.07100    0.39960    1.000
    O29      O        0.46980    0.93759    0.59250    1.000
    O30      O        0.00610    0.92954    0.26200    1.000
    O31      O        0.55826    0.19171    0.89780    1.000
    O32      O        0.74700    0.15180    0.56560    1.000
