# CIF file generated by openbabel 3.1.0, see https://openbabel.org
data_I
_chemical_name_common 'image0'
_cell_length_a 29.647
_cell_length_b 24.669
_cell_length_c 9.7421
_cell_angle_alpha 90
_cell_angle_beta 90
_cell_angle_gamma 90
_space_group_name_H-M_alt 'P 1'
_space_group_name_Hall 'P 1'
loop_
    _symmetry_equiv_pos_as_xyz
    x,y,z
loop_
    _atom_site_label
    _atom_site_type_symbol
    _atom_site_fract_x
    _atom_site_fract_y
    _atom_site_fract_z
    _atom_site_occupancy
    Zn1      Zn       0.45812    0.23926    0.97830    1.000
    Zn2      Zn       0.79653    0.18914    0.86100    1.000
    O1       O        0.72317    0.22102    0.83570    1.000
    O2       O        0.74316    0.13711    0.87550    1.000
    O3       O        0.66737    0.25530    0.28070    1.000
    O4       O        0.69947    0.20015    0.13430    1.000
    O5       O        0.56286    0.29070    0.65140    1.000
    O6       O        0.61675    0.22966    0.62750    1.000
    N1       N        0.65256    0.63056    0.86520    1.000
    N2       N        0.47645    0.31768    0.97360    1.000
    O7       O        0.50976    0.19522    0.91410    1.000
    O8       O        0.55102    0.23509    0.07830    1.000
    C1       C        0.54704    0.20375    0.97870    1.000
    C2       C        0.58608    0.17020    0.92960    1.000
    C3       C        0.57710    0.11442    0.90810    1.000
    H1       H        0.54780    0.10130    0.91650    1.000
    C4       C        0.61180    0.07968    0.87470    1.000
    H2       H        0.60610    0.04300    0.86140    1.000
    C5       C        0.65578    0.09977    0.86080    1.000
    H3       H        0.67920    0.07610    0.83970    1.000
    C6       C        0.66481    0.15516    0.87830    1.000
    C7       C        0.71332    0.17271    0.86290    1.000
    C8       C        0.62978    0.19152    0.91130    1.000
    C9       C        0.67547    0.24082    0.15760    1.000
    C10      C        0.65542    0.27478    0.04460    1.000
    C11      C        0.65581    0.33162    0.06400    1.000
    H4       H        0.66790    0.34660    0.14350    1.000
    C12      C        0.63795    0.36455    0.96300    1.000
    H5       H        0.63880    0.40200    0.97400    1.000
    C13      C        0.61898    0.34294    0.84670    1.000
    H6       H        0.60660    0.36580    0.78070    1.000
    C14      C        0.61823    0.28747    0.82710    1.000
    C15      C        0.59874    0.26636    0.69340    1.000
    C16      C        0.63644    0.25184    0.92570    1.000
    C17      C        0.48771    0.34237    0.85550    1.000
    H7       H        0.48050    0.32550    0.77290    1.000
    C18      C        0.50946    0.39163    0.85220    1.000
    H8       H        0.51590    0.40790    0.76830    1.000
    C19      C        0.52176    0.41709    0.97330    1.000
    C20      C        0.50862    0.39239    0.09590    1.000
    H9       H        0.51460    0.40910    0.17950    1.000
    C21      C        0.48664    0.34292    0.09210    1.000
    H10      H        0.47860    0.32650    0.17450    1.000
    C22      C        0.63740    0.60740    0.75360    1.000
    H11      H        0.64610    0.62220    0.66980    1.000
    C23      C        0.60941    0.56260    0.75110    1.000
    H12      H        0.60050    0.54740    0.66820    1.000
    C24      C        0.59489    0.54099    0.87410    1.000
    C25      C        0.60874    0.56593    0.99210    1.000
    H13      H        0.59870    0.55340    0.07670    1.000
    C26      C        0.63789    0.61010    0.98600    1.000
    H14      H        0.64760    0.62600    0.06730    1.000
    C27      C        0.56582    0.49247    0.87140    1.000
    H15      H        0.55880    0.47820    0.78560    1.000
    C28      C        0.54877    0.46720    0.98050    1.000
    H16      H        0.55420    0.48210    0.06660    1.000
    Zn3      Zn       0.45812    0.73926    0.47830    1.000
    Zn4      Zn       0.79653    0.68914    0.36100    1.000
    O9       O        0.72317    0.72102    0.33570    1.000
    O10      O        0.74316    0.63711    0.37550    1.000
    O11      O        0.66737    0.75530    0.78070    1.000
    O12      O        0.69947    0.70015    0.63430    1.000
    O13      O        0.56286    0.79070    0.15140    1.000
    O14      O        0.61675    0.72966    0.12750    1.000
    N3       N        0.65256    0.13056    0.36520    1.000
    N4       N        0.47645    0.81768    0.47360    1.000
    O15      O        0.50976    0.69522    0.41410    1.000
    O16      O        0.55102    0.73509    0.57830    1.000
    C29      C        0.54704    0.70375    0.47870    1.000
    C30      C        0.58608    0.67020    0.42960    1.000
    C31      C        0.57710    0.61442    0.40810    1.000
    H17      H        0.54780    0.60130    0.41650    1.000
    C32      C        0.61180    0.57968    0.37470    1.000
    H18      H        0.60610    0.54300    0.36140    1.000
    C33      C        0.65578    0.59977    0.36080    1.000
    H19      H        0.67920    0.57610    0.33970    1.000
    C34      C        0.66481    0.65516    0.37830    1.000
    C35      C        0.71332    0.67271    0.36290    1.000
    C36      C        0.62978    0.69152    0.41130    1.000
    C37      C        0.67547    0.74082    0.65760    1.000
    C38      C        0.65542    0.77478    0.54460    1.000
    C39      C        0.65581    0.83162    0.56400    1.000
    H20      H        0.66790    0.84660    0.64350    1.000
    C40      C        0.63795    0.86455    0.46300    1.000
    H21      H        0.63880    0.90200    0.47400    1.000
    C41      C        0.61898    0.84294    0.34670    1.000
    H22      H        0.60660    0.86580    0.28070    1.000
    C42      C        0.61823    0.78747    0.32710    1.000
    C43      C        0.59874    0.76636    0.19340    1.000
    C44      C        0.63644    0.75184    0.42570    1.000
    C45      C        0.48771    0.84237    0.35550    1.000
    H23      H        0.48050    0.82550    0.27290    1.000
    C46      C        0.50946    0.89163    0.35220    1.000
    H24      H        0.51590    0.90790    0.26830    1.000
    C47      C        0.52176    0.91709    0.47330    1.000
    C48      C        0.50862    0.89239    0.59590    1.000
    H25      H        0.51460    0.90910    0.67950    1.000
    C49      C        0.48664    0.84292    0.59210    1.000
    H26      H        0.47860    0.82650    0.67450    1.000
    C50      C        0.63740    0.10740    0.25360    1.000
    H27      H        0.64610    0.12220    0.16980    1.000
    C51      C        0.60941    0.06260    0.25110    1.000
    H28      H        0.60050    0.04740    0.16820    1.000
    C52      C        0.59489    0.04099    0.37410    1.000
    C53      C        0.60874    0.06593    0.49210    1.000
    H29      H        0.59870    0.05340    0.57670    1.000
    C54      C        0.63789    0.11010    0.48600    1.000
    H30      H        0.64760    0.12600    0.56730    1.000
    C55      C        0.56582    0.99247    0.37140    1.000
    H31      H        0.55880    0.97820    0.28560    1.000
    C56      C        0.54877    0.96720    0.48050    1.000
    H32      H        0.55420    0.98210    0.56660    1.000
    Zn5      Zn       0.54188    0.76074    0.97830    1.000
    Zn6      Zn       0.20347    0.81086    0.86100    1.000
    O17      O        0.27683    0.77898    0.83570    1.000
    O18      O        0.25684    0.86289    0.87550    1.000
    O19      O        0.33263    0.74470    0.28070    1.000
    O20      O        0.30053    0.79985    0.13430    1.000
    O21      O        0.43714    0.70930    0.65140    1.000
    O22      O        0.38325    0.77034    0.62750    1.000
    N5       N        0.34744    0.36944    0.86520    1.000
    N6       N        0.52355    0.68232    0.97360    1.000
    O23      O        0.49024    0.80478    0.91410    1.000
    O24      O        0.44898    0.76491    0.07830    1.000
    C57      C        0.45296    0.79625    0.97870    1.000
    C58      C        0.41392    0.82980    0.92960    1.000
    C59      C        0.42290    0.88558    0.90810    1.000
    H33      H        0.45220    0.89870    0.91650    1.000
    C60      C        0.38820    0.92032    0.87470    1.000
    H34      H        0.39390    0.95700    0.86140    1.000
    C61      C        0.34422    0.90023    0.86080    1.000
    H35      H        0.32080    0.92390    0.83970    1.000
    C62      C        0.33519    0.84484    0.87830    1.000
    C63      C        0.28668    0.82729    0.86290    1.000
    C64      C        0.37022    0.80848    0.91130    1.000
    C65      C        0.32453    0.75918    0.15760    1.000
    C66      C        0.34458    0.72522    0.04460    1.000
    C67      C        0.34419    0.66838    0.06400    1.000
    H36      H        0.33210    0.65340    0.14350    1.000
    C68      C        0.36205    0.63545    0.96300    1.000
    H37      H        0.36120    0.59800    0.97400    1.000
    C69      C        0.38102    0.65706    0.84670    1.000
    H38      H        0.39340    0.63420    0.78070    1.000
    C70      C        0.38177    0.71253    0.82710    1.000
    C71      C        0.40126    0.73364    0.69340    1.000
    C72      C        0.36356    0.74816    0.92570    1.000
    C73      C        0.51229    0.65763    0.85550    1.000
    H39      H        0.51950    0.67450    0.77290    1.000
    C74      C        0.49054    0.60837    0.85220    1.000
    H40      H        0.48410    0.59210    0.76830    1.000
    C75      C        0.47824    0.58291    0.97330    1.000
    C76      C        0.49138    0.60761    0.09590    1.000
    H41      H        0.48540    0.59090    0.17950    1.000
    C77      C        0.51336    0.65708    0.09210    1.000
    H42      H        0.52140    0.67350    0.17450    1.000
    C78      C        0.36260    0.39260    0.75360    1.000
    H43      H        0.35390    0.37780    0.66980    1.000
    C79      C        0.39059    0.43740    0.75110    1.000
    H44      H        0.39950    0.45260    0.66820    1.000
    C80      C        0.40511    0.45901    0.87410    1.000
    C81      C        0.39126    0.43407    0.99210    1.000
    H45      H        0.40130    0.44660    0.07670    1.000
    C82      C        0.36211    0.38990    0.98600    1.000
    H46      H        0.35240    0.37400    0.06730    1.000
    C83      C        0.43418    0.50753    0.87140    1.000
    H47      H        0.44120    0.52180    0.78560    1.000
    C84      C        0.45123    0.53280    0.98050    1.000
    H48      H        0.44580    0.51790    0.06660    1.000
    Zn7      Zn       0.54188    0.26074    0.47830    1.000
    Zn8      Zn       0.20347    0.31086    0.36100    1.000
    O25      O        0.27683    0.27898    0.33570    1.000
    O26      O        0.25684    0.36289    0.37550    1.000
    O27      O        0.33263    0.24470    0.78070    1.000
    O28      O        0.30053    0.29985    0.63430    1.000
    O29      O        0.43714    0.20930    0.15140    1.000
    O30      O        0.38325    0.27034    0.12750    1.000
    N7       N        0.34744    0.86944    0.36520    1.000
    N8       N        0.52355    0.18232    0.47360    1.000
    O31      O        0.49024    0.30478    0.41410    1.000
    O32      O        0.44898    0.26491    0.57830    1.000
    C85      C        0.45296    0.29625    0.47870    1.000
    C86      C        0.41392    0.32980    0.42960    1.000
    C87      C        0.42290    0.38558    0.40810    1.000
    H49      H        0.45220    0.39870    0.41650    1.000
    C88      C        0.38820    0.42032    0.37470    1.000
    H50      H        0.39390    0.45700    0.36140    1.000
    C89      C        0.34422    0.40023    0.36080    1.000
    H51      H        0.32080    0.42390    0.33970    1.000
    C90      C        0.33519    0.34484    0.37830    1.000
    C91      C        0.28668    0.32729    0.36290    1.000
    C92      C        0.37022    0.30848    0.41130    1.000
    C93      C        0.32453    0.25918    0.65760    1.000
    C94      C        0.34458    0.22522    0.54460    1.000
    C95      C        0.34419    0.16838    0.56400    1.000
    H52      H        0.33210    0.15340    0.64350    1.000
    C96      C        0.36205    0.13545    0.46300    1.000
    H53      H        0.36120    0.09800    0.47400    1.000
    C97      C        0.38102    0.15706    0.34670    1.000
    H54      H        0.39340    0.13420    0.28070    1.000
    C98      C        0.38177    0.21253    0.32710    1.000
    C99      C        0.40126    0.23364    0.19340    1.000
    C100     C        0.36356    0.24816    0.42570    1.000
    C101     C        0.51229    0.15763    0.35550    1.000
    H55      H        0.51950    0.17450    0.27290    1.000
    C102     C        0.49054    0.10837    0.35220    1.000
    H56      H        0.48410    0.09210    0.26830    1.000
    C103     C        0.47824    0.08291    0.47330    1.000
    C104     C        0.49138    0.10761    0.59590    1.000
    H57      H        0.48540    0.09090    0.67950    1.000
    C105     C        0.51336    0.15708    0.59210    1.000
    H58      H        0.52140    0.17350    0.67450    1.000
    C106     C        0.36260    0.89260    0.25360    1.000
    H59      H        0.35390    0.87780    0.16980    1.000
    C107     C        0.39059    0.93740    0.25110    1.000
    H60      H        0.39950    0.95260    0.16820    1.000
    C108     C        0.40511    0.95901    0.37410    1.000
    C109     C        0.39126    0.93407    0.49210    1.000
    H61      H        0.40130    0.94660    0.57670    1.000
    C110     C        0.36211    0.88990    0.48600    1.000
    H62      H        0.35240    0.87400    0.56730    1.000
    C111     C        0.43418    0.00753    0.37140    1.000
    H63      H        0.44120    0.02180    0.28560    1.000
    C112     C        0.45123    0.03280    0.48050    1.000
    H64      H        0.44580    0.01790    0.56660    1.000
    Zn9      Zn       0.95812    0.26074    0.97830    1.000
    Zn10     Zn       0.29653    0.31086    0.86100    1.000
    O33      O        0.22317    0.27898    0.83570    1.000
    O34      O        0.24316    0.36289    0.87550    1.000
    O35      O        0.16737    0.24470    0.28070    1.000
    O36      O        0.19947    0.29985    0.13430    1.000
    O37      O        0.06286    0.20930    0.65140    1.000
    O38      O        0.11675    0.27034    0.62750    1.000
    N9       N        0.15256    0.86944    0.86520    1.000
    N10      N        0.97645    0.18232    0.97360    1.000
    O39      O        0.00976    0.30478    0.91410    1.000
    O40      O        0.05102    0.26491    0.07830    1.000
    C113     C        0.04704    0.29625    0.97870    1.000
    C114     C        0.08608    0.32980    0.92960    1.000
    C115     C        0.07710    0.38558    0.90810    1.000
    H65      H        0.04780    0.39870    0.91650    1.000
    C116     C        0.11180    0.42032    0.87470    1.000
    H66      H        0.10610    0.45700    0.86140    1.000
    C117     C        0.15578    0.40023    0.86080    1.000
    H67      H        0.17920    0.42390    0.83970    1.000
    C118     C        0.16481    0.34484    0.87830    1.000
    C119     C        0.21332    0.32729    0.86290    1.000
    C120     C        0.12978    0.30848    0.91130    1.000
    C121     C        0.17547    0.25918    0.15760    1.000
    C122     C        0.15542    0.22522    0.04460    1.000
    C123     C        0.15581    0.16838    0.06400    1.000
    H68      H        0.16790    0.15340    0.14350    1.000
    C124     C        0.13795    0.13545    0.96300    1.000
    H69      H        0.13880    0.09800    0.97400    1.000
    C125     C        0.11898    0.15706    0.84670    1.000
    H70      H        0.10660    0.13420    0.78070    1.000
    C126     C        0.11823    0.21253    0.82710    1.000
    C127     C        0.09874    0.23364    0.69340    1.000
    C128     C        0.13644    0.24816    0.92570    1.000
    C129     C        0.98771    0.15763    0.85550    1.000
    H71      H        0.98050    0.17450    0.77290    1.000
    C130     C        0.00946    0.10837    0.85220    1.000
    H72      H        0.01590    0.09210    0.76830    1.000
    C131     C        0.02176    0.08291    0.97330    1.000
    C132     C        0.00862    0.10761    0.09590    1.000
    H73      H        0.01460    0.09090    0.17950    1.000
    C133     C        0.98664    0.15708    0.09210    1.000
    H74      H        0.97860    0.17350    0.17450    1.000
    C134     C        0.13740    0.89260    0.75360    1.000
    H75      H        0.14610    0.87780    0.66980    1.000
    C135     C        0.10941    0.93740    0.75110    1.000
    H76      H        0.10050    0.95260    0.66820    1.000
    C136     C        0.09489    0.95901    0.87410    1.000
    C137     C        0.10874    0.93407    0.99210    1.000
    H77      H        0.09870    0.94660    0.07670    1.000
    C138     C        0.13789    0.88990    0.98600    1.000
    H78      H        0.14760    0.87400    0.06730    1.000
    C139     C        0.06582    0.00753    0.87140    1.000
    H79      H        0.05880    0.02180    0.78560    1.000
    C140     C        0.04877    0.03280    0.98050    1.000
    H80      H        0.05420    0.01790    0.06660    1.000
    Zn11     Zn       0.95812    0.76074    0.47830    1.000
    Zn12     Zn       0.29653    0.81086    0.36100    1.000
    O41      O        0.22317    0.77898    0.33570    1.000
    O42      O        0.24316    0.86289    0.37550    1.000
    O43      O        0.16737    0.74470    0.78070    1.000
    O44      O        0.19947    0.79985    0.63430    1.000
    O45      O        0.06286    0.70930    0.15140    1.000
    O46      O        0.11675    0.77034    0.12750    1.000
    N11      N        0.15256    0.36944    0.36520    1.000
    N12      N        0.97645    0.68232    0.47360    1.000
    O47      O        0.00976    0.80478    0.41410    1.000
    O48      O        0.05102    0.76491    0.57830    1.000
    C141     C        0.04704    0.79625    0.47870    1.000
    C142     C        0.08608    0.82980    0.42960    1.000
    C143     C        0.07710    0.88558    0.40810    1.000
    H81      H        0.04780    0.89870    0.41650    1.000
    C144     C        0.11180    0.92032    0.37470    1.000
    H82      H        0.10610    0.95700    0.36140    1.000
    C145     C        0.15578    0.90023    0.36080    1.000
    H83      H        0.17920    0.92390    0.33970    1.000
    C146     C        0.16481    0.84484    0.37830    1.000
    C147     C        0.21332    0.82729    0.36290    1.000
    C148     C        0.12978    0.80848    0.41130    1.000
    C149     C        0.17547    0.75918    0.65760    1.000
    C150     C        0.15542    0.72522    0.54460    1.000
    C151     C        0.15581    0.66838    0.56400    1.000
    H84      H        0.16790    0.65340    0.64350    1.000
    C152     C        0.13795    0.63545    0.46300    1.000
    H85      H        0.13880    0.59800    0.47400    1.000
    C153     C        0.11898    0.65706    0.34670    1.000
    H86      H        0.10660    0.63420    0.28070    1.000
    C154     C        0.11823    0.71253    0.32710    1.000
    C155     C        0.09874    0.73364    0.19340    1.000
    C156     C        0.13644    0.74816    0.42570    1.000
    C157     C        0.98771    0.65763    0.35550    1.000
    H87      H        0.98050    0.67450    0.27290    1.000
    C158     C        0.00946    0.60837    0.35220    1.000
    H88      H        0.01590    0.59210    0.26830    1.000
    C159     C        0.02176    0.58291    0.47330    1.000
    C160     C        0.00862    0.60761    0.59590    1.000
    H89      H        0.01460    0.59090    0.67950    1.000
    C161     C        0.98664    0.65708    0.59210    1.000
    H90      H        0.97860    0.67350    0.67450    1.000
    C162     C        0.13740    0.39260    0.25360    1.000
    H91      H        0.14610    0.37780    0.16980    1.000
    C163     C        0.10941    0.43740    0.25110    1.000
    H92      H        0.10050    0.45260    0.16820    1.000
    C164     C        0.09489    0.45901    0.37410    1.000
    C165     C        0.10874    0.43407    0.49210    1.000
    H93      H        0.09870    0.44660    0.57670    1.000
    C166     C        0.13789    0.38990    0.48600    1.000
    H94      H        0.14760    0.37400    0.56730    1.000
    C167     C        0.06582    0.50753    0.37140    1.000
    H95      H        0.05880    0.52180    0.28560    1.000
    C168     C        0.04877    0.53280    0.48050    1.000
    H96      H        0.05420    0.51790    0.56660    1.000
    Zn13     Zn       0.04188    0.73926    0.97830    1.000
    Zn14     Zn       0.70347    0.68914    0.86100    1.000
    O49      O        0.77683    0.72102    0.83570    1.000
    O50      O        0.75684    0.63711    0.87550    1.000
    O51      O        0.83263    0.75530    0.28070    1.000
    O52      O        0.80053    0.70015    0.13430    1.000
    O53      O        0.93714    0.79070    0.65140    1.000
    O54      O        0.88325    0.72966    0.62750    1.000
    N13      N        0.84744    0.13056    0.86520    1.000
    N14      N        0.02355    0.81768    0.97360    1.000
    O55      O        0.99024    0.69522    0.91410    1.000
    O56      O        0.94898    0.73509    0.07830    1.000
    C169     C        0.95296    0.70375    0.97870    1.000
    C170     C        0.91392    0.67020    0.92960    1.000
    C171     C        0.92290    0.61442    0.90810    1.000
    H97      H        0.95220    0.60130    0.91650    1.000
    C172     C        0.88820    0.57968    0.87470    1.000
    H98      H        0.89390    0.54300    0.86140    1.000
    C173     C        0.84422    0.59977    0.86080    1.000
    H99      H        0.82080    0.57610    0.83970    1.000
    C174     C        0.83519    0.65516    0.87830    1.000
    C175     C        0.78668    0.67271    0.86290    1.000
    C176     C        0.87022    0.69152    0.91130    1.000
    C177     C        0.82453    0.74082    0.15760    1.000
    C178     C        0.84458    0.77478    0.04460    1.000
    C179     C        0.84419    0.83162    0.06400    1.000
    H100     H        0.83210    0.84660    0.14350    1.000
    C180     C        0.86205    0.86455    0.96300    1.000
    H101     H        0.86120    0.90200    0.97400    1.000
    C181     C        0.88102    0.84294    0.84670    1.000
    H102     H        0.89340    0.86580    0.78070    1.000
    C182     C        0.88177    0.78747    0.82710    1.000
    C183     C        0.90126    0.76636    0.69340    1.000
    C184     C        0.86356    0.75184    0.92570    1.000
    C185     C        0.01229    0.84237    0.85550    1.000
    H103     H        0.01950    0.82550    0.77290    1.000
    C186     C        0.99054    0.89163    0.85220    1.000
    H104     H        0.98410    0.90790    0.76830    1.000
    C187     C        0.97824    0.91709    0.97330    1.000
    C188     C        0.99138    0.89239    0.09590    1.000
    H105     H        0.98540    0.90910    0.17950    1.000
    C189     C        0.01336    0.84292    0.09210    1.000
    H106     H        0.02140    0.82650    0.17450    1.000
    C190     C        0.86260    0.10740    0.75360    1.000
    H107     H        0.85390    0.12220    0.66980    1.000
    C191     C        0.89059    0.06260    0.75110    1.000
    H108     H        0.89950    0.04740    0.66820    1.000
    C192     C        0.90511    0.04099    0.87410    1.000
    C193     C        0.89126    0.06593    0.99210    1.000
    H109     H        0.90130    0.05340    0.07670    1.000
    C194     C        0.86211    0.11010    0.98600    1.000
    H110     H        0.85240    0.12600    0.06730    1.000
    C195     C        0.93418    0.99247    0.87140    1.000
    H111     H        0.94120    0.97820    0.78560    1.000
    C196     C        0.95123    0.96720    0.98050    1.000
    H112     H        0.94580    0.98210    0.06660    1.000
    Zn15     Zn       0.04188    0.23926    0.47830    1.000
    Zn16     Zn       0.70347    0.18914    0.36100    1.000
    O57      O        0.77683    0.22102    0.33570    1.000
    O58      O        0.75684    0.13711    0.37550    1.000
    O59      O        0.83263    0.25530    0.78070    1.000
    O60      O        0.80053    0.20015    0.63430    1.000
    O61      O        0.93714    0.29070    0.15140    1.000
    O62      O        0.88325    0.22966    0.12750    1.000
    N15      N        0.84744    0.63056    0.36520    1.000
    N16      N        0.02355    0.31768    0.47360    1.000
    O63      O        0.99024    0.19522    0.41410    1.000
    O64      O        0.94898    0.23509    0.57830    1.000
    C197     C        0.95296    0.20375    0.47870    1.000
    C198     C        0.91392    0.17020    0.42960    1.000
    C199     C        0.92290    0.11442    0.40810    1.000
    H113     H        0.95220    0.10130    0.41650    1.000
    C200     C        0.88820    0.07968    0.37470    1.000
    H114     H        0.89390    0.04300    0.36140    1.000
    C201     C        0.84422    0.09977    0.36080    1.000
    H115     H        0.82080    0.07610    0.33970    1.000
    C202     C        0.83519    0.15516    0.37830    1.000
    C203     C        0.78668    0.17271    0.36290    1.000
    C204     C        0.87022    0.19152    0.41130    1.000
    C205     C        0.82453    0.24082    0.65760    1.000
    C206     C        0.84458    0.27478    0.54460    1.000
    C207     C        0.84419    0.33162    0.56400    1.000
    H116     H        0.83210    0.34660    0.64350    1.000
    C208     C        0.86205    0.36455    0.46300    1.000
    H117     H        0.86120    0.40200    0.47400    1.000
    C209     C        0.88102    0.34294    0.34670    1.000
    H118     H        0.89340    0.36580    0.28070    1.000
    C210     C        0.88177    0.28747    0.32710    1.000
    C211     C        0.90126    0.26636    0.19340    1.000
    C212     C        0.86356    0.25184    0.42570    1.000
    C213     C        0.01229    0.34237    0.35550    1.000
    H119     H        0.01950    0.32550    0.27290    1.000
    C214     C        0.99054    0.39163    0.35220    1.000
    H120     H        0.98410    0.40790    0.26830    1.000
    C215     C        0.97824    0.41709    0.47330    1.000
    C216     C        0.99138    0.39239    0.59590    1.000
    H121     H        0.98540    0.40910    0.67950    1.000
    C217     C        0.01336    0.34292    0.59210    1.000
    H122     H        0.02140    0.32650    0.67450    1.000
    C218     C        0.86260    0.60740    0.25360    1.000
    H123     H        0.85390    0.62220    0.16980    1.000
    C219     C        0.89059    0.56260    0.25110    1.000
    H124     H        0.89950    0.54740    0.16820    1.000
    C220     C        0.90511    0.54099    0.37410    1.000
    C221     C        0.89126    0.56593    0.49210    1.000
    H125     H        0.90130    0.55340    0.57670    1.000
    C222     C        0.86211    0.61010    0.48600    1.000
    H126     H        0.85240    0.62600    0.56730    1.000
    C223     C        0.93418    0.49247    0.37140    1.000
    H127     H        0.94120    0.47820    0.28560    1.000
    C224     C        0.95123    0.46720    0.48050    1.000
    H128     H        0.94580    0.48210    0.56660    1.000
