# CIF file generated by openbabel 3.1.0, see https://openbabel.org
data_I
_chemical_name_common 'TACJIS_clean'
_cell_length_a 8.8962
_cell_length_b 16.5782
_cell_length_c 16.5782
_cell_angle_alpha 85.8717
_cell_angle_beta 74.4363
_cell_angle_gamma 74.4362
_space_group_name_H-M_alt 'P 1'
_space_group_name_Hall 'P 1'
loop_
    _symmetry_equiv_pos_as_xyz
    x,y,z
loop_
    _atom_site_label
    _atom_site_type_symbol
    _atom_site_fract_x
    _atom_site_fract_y
    _atom_site_fract_z
    _atom_site_occupancy
    Cd1      Cd       0.00931    0.09795    0.53595    1.000
    Cd2      Cd       0.64321    0.90205    0.46405    1.000
    Cd3      Cd       0.45474    0.53595    0.90205    1.000
    Cd4      Cd       0.89274    0.46405    0.09795    1.000
    H1       H        0.78400    0.37230    0.49490    1.000
    H2       H        0.66820    0.42180    0.44080    1.000
    H3       H        0.65600    0.27790    0.47930    1.000
    H4       H        0.50450    0.18380    0.48140    1.000
    H5       H        0.12890    0.33190    0.64630    1.000
    H6       H        0.28080    0.42350    0.64490    1.000
    H7       H        0.12860    0.08750    0.95230    1.000
    H8       H        0.06400    0.05530    0.88450    1.000
    H9       H        0.25200    0.10150    0.79710    1.000
    H10      H        0.47070    0.12880    0.69440    1.000
    H11      H        0.77550    0.93480    0.77860    1.000
    H12      H        0.55540    0.90570    0.87710    1.000
    H13      H        0.65120    0.62770    0.50510    1.000
    H14      H        0.53080    0.57820    0.55920    1.000
    H15      H        0.41320    0.72210    0.52070    1.000
    H16      H        0.16970    0.81620    0.51860    1.000
    H17      H        0.10710    0.66810    0.35370    1.000
    H18      H        0.34920    0.57650    0.35510    1.000
    H19      H        0.16840    0.91250    0.04770    1.000
    H20      H        0.00380    0.94470    0.11550    1.000
    H21      H        0.15060    0.89850    0.20290    1.000
    H22      H        0.29390    0.87120    0.30560    1.000
    H23      H        0.48890    0.06520    0.22140    1.000
    H24      H        0.33820    0.09430    0.12290    1.000
    H25      H        0.72110    0.49490    0.62770    1.000
    H26      H        0.89100    0.44080    0.57820    1.000
    H27      H        0.86470    0.47930    0.72210    1.000
    H28      H        0.01410    0.48140    0.81620    1.000
    H29      H        0.22480    0.64630    0.66810    1.000
    H30      H        0.07430    0.64490    0.57650    1.000
    H31      H        0.91910    0.95230    0.91250    1.000
    H32      H        0.05150    0.88450    0.94470    1.000
    H33      H        0.95090    0.79710    0.89850    1.000
    H34      H        0.83490    0.69440    0.87120    1.000
    H35      H        0.44590    0.77860    0.06520    1.000
    H36      H        0.56750    0.87710    0.09430    1.000
    H37      H        0.84370    0.50510    0.37230    1.000
    H38      H        0.91000    0.55920    0.42180    1.000
    H39      H        0.06610    0.52070    0.27790    1.000
    H40      H        0.31170    0.51860    0.18380    1.000
    H41      H        0.53920    0.35370    0.33190    1.000
    H42      H        0.29570    0.35510    0.42350    1.000
    H43      H        0.78390    0.04770    0.08750    1.000
    H44      H        0.88070    0.11550    0.05530    1.000
    H45      H        0.64650    0.20290    0.10150    1.000
    H46      H        0.40050    0.30560    0.12880    1.000
    H47      H        0.28970    0.22140    0.93480    1.000
    H48      H        0.53890    0.12290    0.90570    1.000
    C1       C        0.69680    0.42170    0.49330    1.000
    C2       C        0.48050    0.36130    0.56050    1.000
    C3       C        0.55010    0.28840    0.51200    1.000
    C4       C        0.45910    0.23220    0.51360    1.000
    C5       C        0.29900    0.24720    0.56300    1.000
    C6       C        0.23420    0.32100    0.61260    1.000
    C7       C        0.32420    0.37600    0.61140    1.000
    C8       C        0.19470    0.19190    0.55910    1.000
    C9       C        0.11170    0.03840    0.93120    1.000
    C10      C        0.38380    0.99860    0.84540    1.000
    C11      C        0.35600    0.06750    0.79210    1.000
    C12      C        0.48780    0.08430    0.73130    1.000
    C13      C        0.64130    0.03590    0.72590    1.000
    C14      C        0.67110    0.96720    0.78160    1.000
    C15      C        0.53890    0.95040    0.84040    1.000
    C16      C        0.78030    0.05440    0.66000    1.000
    C17      C        0.61180    0.57830    0.50670    1.000
    C18      C        0.40230    0.63870    0.43950    1.000
    C19      C        0.35050    0.71160    0.48800    1.000
    C20      C        0.20490    0.76780    0.48640    1.000
    C21      C        0.10920    0.75280    0.43700    1.000
    C22      C        0.16780    0.67900    0.38740    1.000
    C23      C        0.31160    0.62400    0.38860    1.000
    C24      C        0.94570    0.80810    0.44090    1.000
    C25      C        0.08130    0.96160    0.06880    1.000
    C26      C        0.22780    0.00140    0.15460    1.000
    C27      C        0.21560    0.93250    0.20790    1.000
    C28      C        0.30340    0.91570    0.26870    1.000
    C29      C        0.40310    0.96410    0.27410    1.000
    C30      C        0.41990    0.03280    0.21840    1.000
    C31      C        0.32970    0.04960    0.15960    1.000
    C32      C        0.49470    0.94560    0.34000    1.000
    C33      C        0.80990    0.49330    0.57830    1.000
    C34      C        0.95900    0.56050    0.63870    1.000
    C35      C        0.93790    0.51200    0.71160    1.000
    C36      C        0.02730    0.51360    0.76780    1.000
    C37      C        0.13800    0.56300    0.75280    1.000
    C38      C        0.15320    0.61260    0.67900    1.000
    C39      C        0.06440    0.61140    0.62400    1.000
    C40      C        0.24620    0.55910    0.80810    1.000
    C41      C        0.95710    0.93120    0.96160    1.000
    C42      C        0.77080    0.84540    0.00140    1.000
    C43      C        0.85190    0.79210    0.93250    1.000
    C44      C        0.78090    0.73130    0.91570    1.000
    C45      C        0.63280    0.72590    0.96410    1.000
    C46      C        0.54730    0.78160    0.03280    1.000
    C47      C        0.62070    0.84040    0.04960    1.000
    C48      C        0.55970    0.66000    0.94560    1.000
    C49      C        0.88150    0.50670    0.42170    1.000
    C50      C        0.15820    0.43950    0.36130    1.000
    C51      C        0.16150    0.48800    0.28840    1.000
    C52      C        0.30870    0.48640    0.23220    1.000
    C53      C        0.45380    0.43700    0.24720    1.000
    C54      C        0.44480    0.38740    0.32100    1.000
    C55      C        0.29980    0.38860    0.37600    1.000
    C56      C        0.61340    0.44090    0.19190    1.000
    C57      C        0.84990    0.06880    0.03840    1.000
    C58      C        0.61760    0.15460    0.99860    1.000
    C59      C        0.57650    0.20790    0.06750    1.000
    C60      C        0.42790    0.26870    0.08430    1.000
    C61      C        0.32280    0.27410    0.03590    1.000
    C62      C        0.36170    0.21840    0.96720    1.000
    C63      C        0.51070    0.15960    0.95040    1.000
    C64      C        0.16530    0.34000    0.05440    1.000
    C65      C        0.75000    0.50000    0.50000    1.000
    C66      C        0.00000    0.00000    0.00000    1.000
    O1       O        0.56034    0.42066    0.56186    1.000
    O2       O        0.26240    0.11910    0.52770    1.000
    O3       O        0.04740    0.21670    0.58390    1.000
    O4       O        0.26310    0.97625    0.90455    1.000
    O5       O        0.75100    0.09070    0.59350    1.000
    O6       O        0.91920    0.03520    0.67180    1.000
    O7       O        0.54286    0.57934    0.43814    1.000
    O8       O        0.90920    0.88090    0.47230    1.000
    O9       O        0.84800    0.78330    0.41610    1.000
    O10      O        0.14390    0.02375    0.09545    1.000
    O11      O        0.43520    0.90930    0.40650    1.000
    O12      O        0.62620    0.96480    0.32820    1.000
    O13      O        0.87780    0.56186    0.57934    1.000
    O14      O        0.20990    0.52770    0.88090    1.000
    O15      O        0.36870    0.58390    0.78330    1.000
    O16      O        0.83235    0.90455    0.02375    1.000
    O17      O        0.65550    0.59350    0.90930    1.000
    O18      O        0.40900    0.67180    0.96480    1.000
    O19      O        0.01900    0.43814    0.42066    1.000
    O20      O        0.61850    0.47230    0.11910    1.000
    O21      O        0.73590    0.41610    0.21670    1.000
    O22      O        0.76065    0.09545    0.97625    1.000
    O23      O        0.15830    0.40650    0.09070    1.000
    O24      O        0.04560    0.32820    0.03520    1.000
