# CIF file generated by openbabel 3.1.0, see https://openbabel.org
data_I
_chemical_name_common 'image0'
_cell_length_a 11.573
_cell_length_b 13.892
_cell_length_c 14.655
_cell_angle_alpha 62.631
_cell_angle_beta 68.977
_cell_angle_gamma 68.8
_space_group_name_H-M_alt 'P 1'
_space_group_name_Hall 'P 1'
loop_
    _symmetry_equiv_pos_as_xyz
    x,y,z
loop_
    _atom_site_label
    _atom_site_type_symbol
    _atom_site_fract_x
    _atom_site_fract_y
    _atom_site_fract_z
    _atom_site_occupancy
    C1       C        0.94200    0.35190    0.34400    1.000
    H1       H        0.88980    0.39000    0.38810    1.000
    C2       C        0.89280    0.29710    0.31360    1.000
    C3       C        0.96900    0.23970    0.24840    1.000
    H2       H        0.93430    0.20430    0.22760    1.000
    C4       C        0.09660    0.23620    0.21520    1.000
    C5       C        0.15020    0.28990    0.24360    1.000
    H3       H        0.23710    0.28660    0.22060    1.000
    C6       C        0.07080    0.34860    0.30740    1.000
    C7       C        0.08620    0.51440    0.32120    1.000
    H4       H        0.01700    0.56580    0.29380    1.000
    C8       C        0.28890    0.20060    0.07590    1.000
    H5       H        0.32760    0.25500    0.06360    1.000
    C9       C        0.15550    0.09260    0.14050    1.000
    H6       H        0.08580    0.06130    0.18030    1.000
    C10      C        0.66370    0.37660    0.37740    1.000
    H7       H        0.67230    0.44300    0.37210    1.000
    C11      C        0.71030    0.21310    0.37010    1.000
    H8       H        0.75450    0.14700    0.35930    1.000
    C12      C        0.58400    0.24540    0.40650    1.000
    H9       H        0.52500    0.20430    0.42600    1.000
    C13      C        0.22560    0.36640    0.37640    1.000
    H10      H        0.27190    0.29250    0.39460    1.000
    C14      C        0.16510    0.53530    0.35340    1.000
    H11      H        0.16040    0.60420    0.35200    1.000
    C15      C        0.53930    0.01650    0.19150    1.000
    C16      C        0.44600    0.94320    0.25910    1.000
    C17      C        0.47240    0.83880    0.25740    1.000
    H12      H        0.54720    0.81340    0.21430    1.000
    C18      C        0.38700    0.77250    0.31990    1.000
    C19      C        0.27250    0.81380    0.37920    1.000
    H13      H        0.21460    0.76920    0.42100    1.000
    C20      C        0.24370    0.91920    0.37720    1.000
    C21      C        0.33200    0.98300    0.31890    1.000
    H14      H        0.31470    0.05350    0.31980    1.000
    C22      C        0.11740    0.96210    0.44000    1.000
    C23      C        0.00970    0.93260    0.45150    1.000
    H15      H        0.01570    0.88740    0.41810    1.000
    C24      C        0.10650    0.03130    0.48870    1.000
    H16      H        0.17750    0.05330    0.48100    1.000
    C25      C        0.41710    0.65560    0.32610    1.000
    C26      C        0.27360    0.31140    0.64600    1.000
    C27      C        0.18430    0.28860    0.75140    1.000
    C28      C        0.11030    0.21430    0.78670    1.000
    H17      H        0.12440    0.17160    0.74840    1.000
    C29      C        0.01500    0.20250    0.87870    1.000
    C30      C        0.99380    0.26780    0.93460    1.000
    H18      H        0.92930    0.26080    0.99590    1.000
    C31      C        0.06690    0.34300    0.90050    1.000
    C32      C        0.16230    0.35190    0.80900    1.000
    H19      H        0.21280    0.40150    0.78560    1.000
    C33      C        0.03300    0.42320    0.95300    1.000
    C34      C        0.90930    0.45600    0.00340    1.000
    H20      H        0.84670    0.42680    0.00630    1.000
    C35      C        0.12350    0.46740    0.94990    1.000
    H21      H        0.20780    0.44600    0.91600    1.000
    C36      C        0.92770    0.13240    0.90780    1.000
    C37      C        0.33170    0.12810    0.02890    1.000
    H22      H        0.40580    0.12440    0.97610    1.000
    Co1      Co       0.38401    0.43284    0.45397    1.000
    Co2      Co       0.72718    0.05665    0.98441    1.000
    N1       N        0.55630    0.34720    0.41030    1.000
    N2       N        0.76000    0.29640    0.35230    1.000
    N3       N        0.17560    0.17940    0.14650    1.000
    N4       N        0.12370    0.40640    0.33510    1.000
    O1       O        0.52560    0.09870    0.20750    1.000
    O2       O        0.62280    0.98580    0.12190    1.000
    O3       O        0.47650    0.63410    0.24740    1.000
    O4       O        0.37590    0.58800    0.41530    1.000
    O5       O        0.30630    0.40360    0.60450    1.000
    O6       O        0.30760    0.24850    0.59900    1.000
    O7       O        0.92230    0.10270    0.84250    1.000
    N5       N        0.25220    0.44150    0.38800    1.000
    O8       O        0.85440    0.10840    0.99740    1.000
    N6       N        0.24970    0.05910    0.07000    1.000
    C38      C        0.05800    0.64810    0.65600    1.000
    H23      H        0.11020    0.61000    0.61190    1.000
    C39      C        0.10720    0.70290    0.68640    1.000
    C40      C        0.03100    0.76030    0.75160    1.000
    H24      H        0.06570    0.79570    0.77240    1.000
    C41      C        0.90340    0.76380    0.78480    1.000
    C42      C        0.84980    0.71010    0.75640    1.000
    H25      H        0.76290    0.71340    0.77940    1.000
    C43      C        0.92920    0.65140    0.69260    1.000
    C44      C        0.91380    0.48560    0.67880    1.000
    H26      H        0.98300    0.43420    0.70620    1.000
    C45      C        0.71110    0.79940    0.92410    1.000
    H27      H        0.67240    0.74500    0.93640    1.000
    C46      C        0.84450    0.90740    0.85950    1.000
    H28      H        0.91420    0.93870    0.81970    1.000
    C47      C        0.33630    0.62340    0.62260    1.000
    H29      H        0.32770    0.55700    0.62790    1.000
    C48      C        0.28970    0.78690    0.62990    1.000
    H30      H        0.24550    0.85300    0.64070    1.000
    C49      C        0.41600    0.75460    0.59350    1.000
    H31      H        0.47500    0.79570    0.57400    1.000
    C50      C        0.77440    0.63360    0.62360    1.000
    H32      H        0.72810    0.70750    0.60540    1.000
    C51      C        0.83490    0.46470    0.64660    1.000
    H33      H        0.83960    0.39580    0.64800    1.000
    C52      C        0.46070    0.98350    0.80850    1.000
    C53      C        0.55400    0.05680    0.74090    1.000
    C54      C        0.52760    0.16120    0.74260    1.000
    H34      H        0.45280    0.18660    0.78570    1.000
    C55      C        0.61300    0.22750    0.68010    1.000
    C56      C        0.72750    0.18620    0.62080    1.000
    H35      H        0.78540    0.23080    0.57900    1.000
    C57      C        0.75630    0.08080    0.62280    1.000
    C58      C        0.66800    0.01700    0.68110    1.000
    H36      H        0.68530    0.94650    0.68020    1.000
    C59      C        0.88260    0.03790    0.56000    1.000
    C60      C        0.99030    0.06740    0.54850    1.000
    H37      H        0.98430    0.11260    0.58190    1.000
    C61      C        0.89350    0.96870    0.51130    1.000
    H38      H        0.82250    0.94670    0.51900    1.000
    C62      C        0.58290    0.34440    0.67390    1.000
    C63      C        0.72640    0.68860    0.35400    1.000
    C64      C        0.81570    0.71140    0.24860    1.000
    C65      C        0.88970    0.78570    0.21330    1.000
    H39      H        0.87560    0.82840    0.25160    1.000
    C66      C        0.98500    0.79750    0.12130    1.000
    C67      C        0.00620    0.73220    0.06540    1.000
    H40      H        0.07070    0.73920    0.00410    1.000
    C68      C        0.93310    0.65700    0.09950    1.000
    C69      C        0.83770    0.64810    0.19100    1.000
    H41      H        0.78720    0.59850    0.21440    1.000
    C70      C        0.96700    0.57680    0.04700    1.000
    C71      C        0.09070    0.54400    0.99660    1.000
    H42      H        0.15330    0.57320    0.99370    1.000
    C72      C        0.87650    0.53260    0.05010    1.000
    H43      H        0.79220    0.55400    0.08400    1.000
    C73      C        0.07230    0.86760    0.09220    1.000
    C74      C        0.66830    0.87190    0.97110    1.000
    H44      H        0.59420    0.87560    0.02390    1.000
    Co3      Co       0.61599    0.56716    0.54603    1.000
    Co4      Co       0.27282    0.94335    0.01559    1.000
    N7       N        0.44370    0.65280    0.58970    1.000
    N8       N        0.24000    0.70360    0.64770    1.000
    N9       N        0.82440    0.82060    0.85350    1.000
    N10      N        0.87630    0.59360    0.66490    1.000
    O9       O        0.47440    0.90130    0.79250    1.000
    O10      O        0.37720    0.01420    0.87810    1.000
    O11      O        0.52350    0.36590    0.75260    1.000
    O12      O        0.62410    0.41200    0.58470    1.000
    O13      O        0.69370    0.59640    0.39550    1.000
    O14      O        0.69240    0.75150    0.40100    1.000
    O15      O        0.07770    0.89730    0.15750    1.000
    N11      N        0.74780    0.55850    0.61200    1.000
    O16      O        0.14560    0.89160    0.00260    1.000
    N12      N        0.75030    0.94090    0.93000    1.000
