# CIF file generated by openbabel 3.1.0, see https://openbabel.org
data_I
_chemical_name_common 'XENKIM_clean'
_cell_length_a 13.5488
_cell_length_b 21.114
_cell_length_c 21.114
_cell_angle_alpha 84.0912
_cell_angle_beta 71.2857
_cell_angle_gamma 71.2856
_space_group_name_H-M_alt 'P 1'
_space_group_name_Hall 'P 1'
loop_
    _symmetry_equiv_pos_as_xyz
    x,y,z
loop_
    _atom_site_label
    _atom_site_type_symbol
    _atom_site_fract_x
    _atom_site_fract_y
    _atom_site_fract_z
    _atom_site_occupancy
    Ca1      Ca       0.37206    0.81467    0.19513    1.000
    Ca2      Ca       0.88186    0.68533    0.30487    1.000
    Ca3      Ca       0.56719    0.80487    0.31467    1.000
    Ca4      Ca       0.18673    0.69513    0.18533    1.000
    H1       H        0.78410    0.75430    0.18390    1.000
    H2       H        0.02070    0.74120    0.00580    1.000
    H3       H        0.70990    0.76930    0.00970    1.000
    H4       H        0.87650    0.91250    0.80550    1.000
    H5       H        0.04200    0.59060    0.81100    1.000
    H6       H        0.22230    0.74570    0.31610    1.000
    H7       H        0.26770    0.75880    0.49420    1.000
    H8       H        0.98890    0.73070    0.49030    1.000
    H9       H        0.09450    0.58750    0.69450    1.000
    H10      H        0.94360    0.90940    0.68900    1.000
    H11      H        0.96800    0.81610    0.25430    1.000
    H12      H        0.02650    0.99420    0.24120    1.000
    H13      H        0.71960    0.99030    0.26930    1.000
    H14      H        0.68200    0.19450    0.41250    1.000
    H15      H        0.85300    0.18900    0.09060    1.000
    H16      H        0.53840    0.68390    0.24570    1.000
    H17      H        0.76190    0.50580    0.25880    1.000
    H18      H        0.47920    0.50970    0.23070    1.000
    H19      H        0.78900    0.30550    0.08750    1.000
    H20      H        0.63260    0.31100    0.40940    1.000
    C1       C        0.60970    0.77954    0.14006    1.000
    C2       C        0.00097    0.73235    0.13531    1.000
    C3       C        0.72789    0.76537    0.10245    1.000
    C4       C        0.80631    0.75458    0.13640    1.000
    C5       C        0.91625    0.74447    0.10043    1.000
    C6       C        0.94689    0.74558    0.03104    1.000
    C7       C        0.86960    0.75306    0.99874    1.000
    C8       C        0.76155    0.76342    0.03308    1.000
    C9       C        0.94960    0.68980    0.89460    1.000
    C10      C        0.88800    0.81400    0.89280    1.000
    C11      C        0.91190    0.87080    0.78300    1.000
    C12      C        0.92606    0.81167    0.81881    1.000
    C13      C        0.03220    0.63140    0.78680    1.000
    C14      C        0.98570    0.69010    0.82170    1.000
    C15      C        0.97460    0.74980    0.78600    1.000
    C16      C        0.02930    0.72046    0.35994    1.000
    C17      C        0.36863    0.76765    0.36469    1.000
    C18      C        0.09571    0.73463    0.39755    1.000
    C19      C        0.19729    0.74542    0.36360    1.000
    C20      C        0.26115    0.75553    0.39957    1.000
    C21      C        0.22351    0.75442    0.46896    1.000
    C22      C        0.12140    0.74694    0.50126    1.000
    C23      C        0.05805    0.73658    0.46692    1.000
    C24      C        0.03400    0.81020    0.60540    1.000
    C25      C        0.09480    0.68600    0.60720    1.000
    C26      C        0.06570    0.62920    0.71700    1.000
    C27      C        0.05654    0.68833    0.68119    1.000
    C28      C        0.95040    0.86860    0.71320    1.000
    C29      C        0.99750    0.80990    0.67830    1.000
    C30      C        0.01040    0.75020    0.71400    1.000
    C31      C        0.74976    0.85994    0.27954    1.000
    C32      C        0.13628    0.86469    0.23235    1.000
    C33      C        0.83034    0.89755    0.26537    1.000
    C34      C        0.94271    0.86360    0.25458    1.000
    C35      C        0.01668    0.89957    0.24447    1.000
    C36      C        0.97793    0.96896    0.24558    1.000
    C37      C        0.86834    0.00126    0.25306    1.000
    C38      C        0.79463    0.96692    0.26342    1.000
    C39      C        0.84420    0.10540    0.18980    1.000
    C40      C        0.78080    0.10720    0.31400    1.000
    C41      C        0.69490    0.21700    0.37080    1.000
    C42      C        0.74487    0.18119    0.31167    1.000
    C43      C        0.81900    0.21320    0.13140    1.000
    C44      C        0.80740    0.17830    0.19010    1.000
    C45      C        0.76060    0.21400    0.24980    1.000
    C46      C        0.38924    0.64006    0.22046    1.000
    C47      C        0.73332    0.63531    0.26765    1.000
    C48      C        0.49326    0.60245    0.23463    1.000
    C49      C        0.56089    0.63640    0.24542    1.000
    C50      C        0.66072    0.60043    0.25553    1.000
    C51      C        0.69247    0.53104    0.25442    1.000
    C52      C        0.62266    0.49874    0.24694    1.000
    C53      C        0.52497    0.53308    0.23658    1.000
    C54      C        0.63940    0.39460    0.31020    1.000
    C55      C        0.70200    0.39280    0.18600    1.000
    C56      C        0.78270    0.28300    0.12920    1.000
    C57      C        0.73773    0.31881    0.18833    1.000
    C58      C        0.66360    0.28680    0.36860    1.000
    C59      C        0.67580    0.32170    0.30990    1.000
    C60      C        0.72440    0.28600    0.25020    1.000
    N1       N        0.90664    0.75127    0.92545    1.000
    N2       N        0.08336    0.74873    0.57455    1.000
    N3       N        0.83209    0.07455    0.25127    1.000
    N4       N        0.65791    0.42545    0.24873    1.000
    O1       O        0.57854    0.79415    0.20097    1.000
    O2       O        0.54570    0.77821    0.10999    1.000
    O3       O        0.97841    0.71127    0.19491    1.000
    O4       O        0.08948    0.74104    0.10420    1.000
    O5       O        0.95669    0.63927    0.92735    1.000
    O6       O        0.84604    0.86490    0.92402    1.000
    O7       O        0.07366    0.70585    0.29903    1.000
    O8       O        0.93390    0.72179    0.39001    1.000
    O9       O        0.38459    0.78873    0.30509    1.000
    O10      O        0.43472    0.75896    0.39580    1.000
    O11      O        0.02331    0.86073    0.57265    1.000
    O12      O        0.13496    0.63510    0.57598    1.000
    O13      O        0.77951    0.79903    0.29415    1.000
    O14      O        0.65569    0.89001    0.27821    1.000
    O15      O        0.17332    0.80509    0.21127    1.000
    O16      O        0.19368    0.89580    0.24104    1.000
    O17      O        0.88404    0.07265    0.13927    1.000
    O18      O        0.77006    0.07598    0.36490    1.000
    O19      O        0.37269    0.70097    0.20585    1.000
    O20      O        0.32391    0.60999    0.22179    1.000
    O21      O        0.68968    0.69491    0.28873    1.000
    O22      O        0.83052    0.60420    0.25896    1.000
    O23      O        0.59596    0.42735    0.36073    1.000
    O24      O        0.71094    0.42402    0.13510    1.000
    Ca5      Ca       0.62794    0.18533    0.80487    1.000
    Ca6      Ca       0.11814    0.31467    0.69513    1.000
    Ca7      Ca       0.43281    0.19513    0.68533    1.000
    Ca8      Ca       0.81327    0.30487    0.81467    1.000
    H21      H        0.21590    0.24570    0.81610    1.000
    H22      H        0.97930    0.25880    0.99420    1.000
    H23      H        0.29010    0.23070    0.99030    1.000
    H24      H        0.12350    0.08750    0.19450    1.000
    H25      H        0.95800    0.40940    0.18900    1.000
    H26      H        0.77770    0.25430    0.68390    1.000
    H27      H        0.73230    0.24120    0.50580    1.000
    H28      H        0.01110    0.26930    0.50970    1.000
    H29      H        0.90550    0.41250    0.30550    1.000
    H30      H        0.05640    0.09060    0.31100    1.000
    H31      H        0.03200    0.18390    0.74570    1.000
    H32      H        0.97350    0.00580    0.75880    1.000
    H33      H        0.28040    0.00970    0.73070    1.000
    H34      H        0.31800    0.80550    0.58750    1.000
    H35      H        0.14700    0.81100    0.90940    1.000
    H36      H        0.46160    0.31610    0.75430    1.000
    H37      H        0.23810    0.49420    0.74120    1.000
    H38      H        0.52080    0.49030    0.76930    1.000
    H39      H        0.21100    0.69450    0.91250    1.000
    H40      H        0.36740    0.68900    0.59060    1.000
    C61      C        0.39030    0.22046    0.85994    1.000
    C62      C        0.99903    0.26765    0.86469    1.000
    C63      C        0.27211    0.23463    0.89755    1.000
    C64      C        0.19369    0.24542    0.86360    1.000
    C65      C        0.08375    0.25553    0.89957    1.000
    C66      C        0.05311    0.25442    0.96896    1.000
    C67      C        0.13040    0.24694    0.00126    1.000
    C68      C        0.23845    0.23658    0.96692    1.000
    C69      C        0.05040    0.31020    0.10540    1.000
    C70      C        0.11200    0.18600    0.10720    1.000
    C71      C        0.08810    0.12920    0.21700    1.000
    C72      C        0.07394    0.18833    0.18119    1.000
    C73      C        0.96780    0.36860    0.21320    1.000
    C74      C        0.01430    0.30990    0.17830    1.000
    C75      C        0.02540    0.25020    0.21400    1.000
    C76      C        0.97070    0.27954    0.64006    1.000
    C77      C        0.63137    0.23235    0.63531    1.000
    C78      C        0.90429    0.26537    0.60245    1.000
    C79      C        0.80271    0.25458    0.63640    1.000
    C80      C        0.73885    0.24447    0.60043    1.000
    C81      C        0.77649    0.24558    0.53104    1.000
    C82      C        0.87860    0.25306    0.49874    1.000
    C83      C        0.94195    0.26342    0.53308    1.000
    C84      C        0.96600    0.18980    0.39460    1.000
    C85      C        0.90520    0.31400    0.39280    1.000
    C86      C        0.93430    0.37080    0.28300    1.000
    C87      C        0.94346    0.31167    0.31881    1.000
    C88      C        0.04960    0.13140    0.28680    1.000
    C89      C        0.00250    0.19010    0.32170    1.000
    C90      C        0.98960    0.24980    0.28600    1.000
    C91      C        0.25024    0.14006    0.72046    1.000
    C92      C        0.86372    0.13531    0.76765    1.000
    C93      C        0.16966    0.10245    0.73463    1.000
    C94      C        0.05729    0.13640    0.74542    1.000
    C95      C        0.98332    0.10043    0.75553    1.000
    C96      C        0.02207    0.03104    0.75442    1.000
    C97      C        0.13166    0.99874    0.74694    1.000
    C98      C        0.20537    0.03308    0.73658    1.000
    C99      C        0.15580    0.89460    0.81020    1.000
    C100     C        0.21920    0.89280    0.68600    1.000
    C101     C        0.30510    0.78300    0.62920    1.000
    C102     C        0.25513    0.81881    0.68833    1.000
    C103     C        0.18100    0.78680    0.86860    1.000
    C104     C        0.19260    0.82170    0.80990    1.000
    C105     C        0.23940    0.78600    0.75020    1.000
    C106     C        0.61076    0.35994    0.77954    1.000
    C107     C        0.26668    0.36469    0.73235    1.000
    C108     C        0.50674    0.39755    0.76537    1.000
    C109     C        0.43911    0.36360    0.75458    1.000
    C110     C        0.33928    0.39957    0.74447    1.000
    C111     C        0.30753    0.46896    0.74558    1.000
    C112     C        0.37734    0.50126    0.75306    1.000
    C113     C        0.47503    0.46692    0.76342    1.000
    C114     C        0.36060    0.60540    0.68980    1.000
    C115     C        0.29800    0.60720    0.81400    1.000
    C116     C        0.21730    0.71700    0.87080    1.000
    C117     C        0.26227    0.68119    0.81167    1.000
    C118     C        0.33640    0.71320    0.63140    1.000
    C119     C        0.32420    0.67830    0.69010    1.000
    C120     C        0.27560    0.71400    0.74980    1.000
    N5       N        0.09336    0.24873    0.07455    1.000
    N6       N        0.91664    0.25127    0.42545    1.000
    N7       N        0.16791    0.92545    0.74873    1.000
    N8       N        0.34209    0.57455    0.75127    1.000
    O25      O        0.42146    0.20585    0.79903    1.000
    O26      O        0.45430    0.22179    0.89001    1.000
    O27      O        0.02159    0.28873    0.80509    1.000
    O28      O        0.91052    0.25896    0.89580    1.000
    O29      O        0.04331    0.36073    0.07265    1.000
    O30      O        0.15396    0.13510    0.07598    1.000
    O31      O        0.92634    0.29415    0.70097    1.000
    O32      O        0.06610    0.27821    0.60999    1.000
    O33      O        0.61541    0.21127    0.69491    1.000
    O34      O        0.56528    0.24104    0.60420    1.000
    O35      O        0.97669    0.13927    0.42735    1.000
    O36      O        0.86504    0.36490    0.42402    1.000
    O37      O        0.22049    0.20097    0.70585    1.000
    O38      O        0.34431    0.10999    0.72179    1.000
    O39      O        0.82668    0.19491    0.78873    1.000
    O40      O        0.80632    0.10420    0.75896    1.000
    O41      O        0.11596    0.92735    0.86073    1.000
    O42      O        0.22994    0.92402    0.63510    1.000
    O43      O        0.62731    0.29903    0.79415    1.000
    O44      O        0.67609    0.39001    0.77821    1.000
    O45      O        0.31032    0.30509    0.71127    1.000
    O46      O        0.16948    0.39580    0.74104    1.000
    O47      O        0.40404    0.57265    0.63927    1.000
    O48      O        0.28906    0.57598    0.86490    1.000
