# CIF file generated by openbabel 3.1.0, see https://openbabel.org
data_I
_chemical_name_common 'image0'
_cell_length_a 7.2652
_cell_length_b 19.3152
_cell_length_c 26.0723
_cell_angle_alpha 90
_cell_angle_beta 90
_cell_angle_gamma 90
_space_group_name_H-M_alt 'P 1'
_space_group_name_Hall 'P 1'
loop_
    _symmetry_equiv_pos_as_xyz
    x,y,z
loop_
    _atom_site_label
    _atom_site_type_symbol
    _atom_site_fract_x
    _atom_site_fract_y
    _atom_site_fract_z
    _atom_site_occupancy
    Ba1      Ba       0.36744    0.30820    0.41167    1.000
    O1       O        0.66930    0.26870    0.34140    1.000
    O2       O        0.54970    0.37230    0.32870    1.000
    O3       O        0.99030    0.32650    0.42130    1.000
    O4       O        0.71410    0.31530    0.45570    1.000
    O5       O        0.42120    0.45070    0.42570    1.000
    C1       C        0.36160    0.15190    0.44540    1.000
    C2       C        0.37580    0.07720    0.46690    1.000
    C3       C        0.30190    0.06100    0.51220    1.000
    C4       C        0.46970    0.02930    0.43820    1.000
    C5       C        0.33660    0.99670    0.53350    1.000
    H1       H        0.22590    0.09330    0.52960    1.000
    C6       C        0.50100    0.96420    0.45840    1.000
    H2       H        0.51280    0.04080    0.40480    1.000
    C7       C        0.43740    0.94640    0.50650    1.000
    H3       H        0.29190    0.98650    0.56690    1.000
    H4       H        0.56750    0.93110    0.43880    1.000
    C8       C        0.48650    0.87770    0.52980    1.000
    C9       C        0.54020    0.87500    0.58120    1.000
    C10      C        0.49010    0.81810    0.50180    1.000
    C11      C        0.59420    0.81330    0.60480    1.000
    H5       H        0.53990    0.91650    0.60090    1.000
    H6       H        0.45980    0.81980    0.46640    1.000
    C12      C        0.53690    0.75500    0.52390    1.000
    C13      C        0.66370    0.81400    0.65710    1.000
    C14      C        0.59370    0.75420    0.57470    1.000
    C15      C        0.52170    0.69080    0.49310    1.000
    C16      C        0.64120    0.75910    0.69000    1.000
    C17      C        0.75600    0.87100    0.67700    1.000
    H7       H        0.63340    0.71170    0.58940    1.000
    C18      C        0.56600    0.69030    0.44120    1.000
    C19      C        0.46600    0.62980    0.51500    1.000
    C20      C        0.70230    0.76060    0.73990    1.000
    H8       H        0.58140    0.71850    0.67780    1.000
    C21      C        0.81700    0.87490    0.72650    1.000
    H9       H        0.77720    0.90930    0.65500    1.000
    C22      C        0.55800    0.62880    0.41400    1.000
    H10      H        0.60150    0.73190    0.42450    1.000
    C23      C        0.45000    0.56880    0.48630    1.000
    H11      H        0.43750    0.62890    0.55060    1.000
    C24      C        0.78590    0.81830    0.75990    1.000
    H12      H        0.68630    0.72090    0.76100    1.000
    H13      H        0.87980    0.91510    0.73830    1.000
    H14      H        0.59430    0.62920    0.37900    1.000
    C25      C        0.49970    0.56650    0.43530    1.000
    H15      H        0.40400    0.52820    0.50240    1.000
    C26      C        0.85560    0.82040    0.81360    1.000
    C27      C        0.49150    0.50120    0.40600    1.000
    O6       O        0.56390    0.50220    0.36050    1.000
    Ba2      Ba       0.63256    0.69180    0.91167    1.000
    O7       O        0.33070    0.73130    0.84140    1.000
    O8       O        0.45030    0.62770    0.82870    1.000
    O9       O        0.00970    0.67350    0.92130    1.000
    O10      O        0.28590    0.68470    0.95570    1.000
    O11      O        0.57880    0.54930    0.92570    1.000
    C28      C        0.63840    0.84810    0.94540    1.000
    C29      C        0.62420    0.92280    0.96690    1.000
    C30      C        0.69810    0.93900    0.01220    1.000
    C31      C        0.53030    0.97070    0.93820    1.000
    C32      C        0.66340    0.00330    0.03350    1.000
    H16      H        0.77410    0.90670    0.02960    1.000
    C33      C        0.49900    0.03580    0.95840    1.000
    H17      H        0.48720    0.95920    0.90480    1.000
    C34      C        0.56260    0.05360    0.00650    1.000
    H18      H        0.70810    0.01350    0.06690    1.000
    H19      H        0.43250    0.06890    0.93880    1.000
    C35      C        0.51350    0.12230    0.02980    1.000
    C36      C        0.45980    0.12500    0.08120    1.000
    C37      C        0.50990    0.18190    0.00180    1.000
    C38      C        0.40580    0.18670    0.10480    1.000
    H20      H        0.46010    0.08350    0.10090    1.000
    H21      H        0.54020    0.18020    0.96640    1.000
    C39      C        0.46310    0.24500    0.02390    1.000
    C40      C        0.33630    0.18600    0.15710    1.000
    C41      C        0.40630    0.24580    0.07470    1.000
    C42      C        0.47830    0.30920    0.99310    1.000
    C43      C        0.35880    0.24090    0.19000    1.000
    C44      C        0.24400    0.12900    0.17700    1.000
    H22      H        0.36660    0.28830    0.08940    1.000
    C45      C        0.43400    0.30970    0.94120    1.000
    C46      C        0.53400    0.37020    0.01500    1.000
    C47      C        0.29770    0.23940    0.23990    1.000
    H23      H        0.41860    0.28150    0.17780    1.000
    C48      C        0.18300    0.12510    0.22650    1.000
    H24      H        0.22280    0.09070    0.15500    1.000
    C49      C        0.44200    0.37120    0.91400    1.000
    H25      H        0.39850    0.26810    0.92450    1.000
    C50      C        0.55000    0.43120    0.98630    1.000
    H26      H        0.56250    0.37110    0.05060    1.000
    C51      C        0.21410    0.18170    0.25990    1.000
    H27      H        0.31370    0.27910    0.26100    1.000
    H28      H        0.12020    0.08490    0.23830    1.000
    H29      H        0.40570    0.37080    0.87900    1.000
    C52      C        0.50030    0.43350    0.93530    1.000
    H30      H        0.59600    0.47180    0.00240    1.000
    C53      C        0.14440    0.17960    0.31360    1.000
    C54      C        0.50850    0.49880    0.90600    1.000
    O12      O        0.43610    0.49780    0.86050    1.000
    Ba3      Ba       0.86744    0.19180    0.41167    1.000
    O13      O        0.16930    0.23130    0.34140    1.000
    O14      O        0.04970    0.12770    0.32870    1.000
    O15      O        0.49030    0.17350    0.42130    1.000
    O16      O        0.21410    0.18470    0.45570    1.000
    O17      O        0.92120    0.04930    0.42570    1.000
    C55      C        0.86160    0.34810    0.44540    1.000
    C56      C        0.87580    0.42280    0.46690    1.000
    C57      C        0.80190    0.43900    0.51220    1.000
    C58      C        0.96970    0.47070    0.43820    1.000
    C59      C        0.83660    0.50330    0.53350    1.000
    H31      H        0.72590    0.40670    0.52960    1.000
    C60      C        0.00100    0.53580    0.45840    1.000
    H32      H        0.01280    0.45920    0.40480    1.000
    C61      C        0.93740    0.55360    0.50650    1.000
    H33      H        0.79190    0.51350    0.56690    1.000
    H34      H        0.06750    0.56890    0.43880    1.000
    C62      C        0.98650    0.62230    0.52980    1.000
    C63      C        0.04020    0.62500    0.58120    1.000
    C64      C        0.99010    0.68190    0.50180    1.000
    C65      C        0.09420    0.68670    0.60480    1.000
    H35      H        0.03990    0.58350    0.60090    1.000
    H36      H        0.95980    0.68020    0.46640    1.000
    C66      C        0.03690    0.74500    0.52390    1.000
    C67      C        0.16370    0.68600    0.65710    1.000
    C68      C        0.09370    0.74580    0.57470    1.000
    C69      C        0.02170    0.80920    0.49310    1.000
    C70      C        0.14120    0.74090    0.69000    1.000
    C71      C        0.25600    0.62900    0.67700    1.000
    H37      H        0.13340    0.78830    0.58940    1.000
    C72      C        0.06600    0.80970    0.44120    1.000
    C73      C        0.96600    0.87020    0.51500    1.000
    C74      C        0.20230    0.73940    0.73990    1.000
    H38      H        0.08140    0.78150    0.67780    1.000
    C75      C        0.31700    0.62510    0.72650    1.000
    H39      H        0.27720    0.59070    0.65500    1.000
    C76      C        0.05800    0.87120    0.41400    1.000
    H40      H        0.10150    0.76810    0.42450    1.000
    C77      C        0.95000    0.93120    0.48630    1.000
    H41      H        0.93750    0.87110    0.55060    1.000
    C78      C        0.28590    0.68170    0.75990    1.000
    H42      H        0.18630    0.77910    0.76100    1.000
    H43      H        0.37980    0.58490    0.73830    1.000
    H44      H        0.09430    0.87080    0.37900    1.000
    C79      C        0.99970    0.93350    0.43530    1.000
    H45      H        0.90400    0.97180    0.50240    1.000
    C80      C        0.35560    0.67960    0.81360    1.000
    C81      C        0.99150    0.99880    0.40600    1.000
    O18      O        0.06390    0.99780    0.36050    1.000
    Ba4      Ba       0.13256    0.80820    0.91167    1.000
    O19      O        0.83070    0.76870    0.84140    1.000
    O20      O        0.95030    0.87230    0.82870    1.000
    O21      O        0.50970    0.82650    0.92130    1.000
    O22      O        0.78590    0.81530    0.95570    1.000
    O23      O        0.07880    0.95070    0.92570    1.000
    C82      C        0.13840    0.65190    0.94540    1.000
    C83      C        0.12420    0.57720    0.96690    1.000
    C84      C        0.19810    0.56100    0.01220    1.000
    C85      C        0.03030    0.52930    0.93820    1.000
    C86      C        0.16340    0.49670    0.03350    1.000
    H46      H        0.27410    0.59330    0.02960    1.000
    C87      C        0.99900    0.46420    0.95840    1.000
    H47      H        0.98720    0.54080    0.90480    1.000
    C88      C        0.06260    0.44640    0.00650    1.000
    H48      H        0.20810    0.48650    0.06690    1.000
    H49      H        0.93250    0.43110    0.93880    1.000
    C89      C        0.01350    0.37770    0.02980    1.000
    C90      C        0.95980    0.37500    0.08120    1.000
    C91      C        0.00990    0.31810    0.00180    1.000
    C92      C        0.90580    0.31330    0.10480    1.000
    H50      H        0.96010    0.41650    0.10090    1.000
    H51      H        0.04020    0.31980    0.96640    1.000
    C93      C        0.96310    0.25500    0.02390    1.000
    C94      C        0.83630    0.31400    0.15710    1.000
    C95      C        0.90630    0.25420    0.07470    1.000
    C96      C        0.97830    0.19080    0.99310    1.000
    C97      C        0.85880    0.25910    0.19000    1.000
    C98      C        0.74400    0.37100    0.17700    1.000
    H52      H        0.86660    0.21170    0.08940    1.000
    C99      C        0.93400    0.19030    0.94120    1.000
    C100     C        0.03400    0.12980    0.01500    1.000
    C101     C        0.79770    0.26060    0.23990    1.000
    H53      H        0.91860    0.21850    0.17780    1.000
    C102     C        0.68300    0.37490    0.22650    1.000
    H54      H        0.72280    0.40930    0.15500    1.000
    C103     C        0.94200    0.12880    0.91400    1.000
    H55      H        0.89850    0.23190    0.92450    1.000
    C104     C        0.05000    0.06880    0.98630    1.000
    H56      H        0.06250    0.12890    0.05060    1.000
    C105     C        0.71410    0.31830    0.25990    1.000
    H57      H        0.81370    0.22090    0.26100    1.000
    H58      H        0.62020    0.41510    0.23830    1.000
    H59      H        0.90570    0.12920    0.87900    1.000
    C106     C        0.00030    0.06650    0.93530    1.000
    H60      H        0.09600    0.02820    0.00240    1.000
    C107     C        0.64440    0.32040    0.31360    1.000
    C108     C        0.00850    0.00120    0.90600    1.000
    O24      O        0.93610    0.00220    0.86050    1.000
