# CIF file generated by openbabel 3.1.0, see https://openbabel.org
data_I
_chemical_name_common 'image0'
_cell_length_a 16.0984
_cell_length_b 14.607
_cell_length_c 16.1257
_cell_angle_alpha 90
_cell_angle_beta 101.479
_cell_angle_gamma 90
_space_group_name_H-M_alt 'P 1'
_space_group_name_Hall 'P 1'
loop_
    _symmetry_equiv_pos_as_xyz
    x,y,z
loop_
    _atom_site_label
    _atom_site_type_symbol
    _atom_site_fract_x
    _atom_site_fract_y
    _atom_site_fract_z
    _atom_site_occupancy
    Cd1      Cd       0.45772    0.93180    0.39140    1.000
    Cd2      Cd       0.04233    0.06734    0.10863    1.000
    O1       O        0.14716    0.03540    0.23729    1.000
    O2       O        0.05373    0.14490    0.23592    1.000
    O3       O        0.40412    0.03400    0.47292    1.000
    O4       O        0.40564    0.12585    0.58346    1.000
    O5       O        0.16730    0.32690    0.59854    1.000
    O6       O        0.05363    0.32740    0.49656    1.000
    O7       O        0.44370    0.82770    0.50047    1.000
    O8       O        0.33030    0.82740    0.40050    1.000
    O9       O        0.44480    0.64930    0.76290    1.000
    O10      O        0.35290    0.54050    0.76468    1.000
    O11      O        0.09440    0.62350    0.41557    1.000
    O12      O        0.09422    0.53720    0.52400    1.000
    C1       C        0.11770    0.10330    0.27090    1.000
    C2       C        0.16650    0.13360    0.36010    1.000
    C3       C        0.12890    0.20040    0.40090    1.000
    H1       H        0.07680    0.22490    0.37510    1.000
    C4       C        0.16790    0.23040    0.47850    1.000
    C5       C        0.24600    0.19390    0.51520    1.000
    H2       H        0.27380    0.21500    0.56780    1.000
    C6       C        0.28360    0.12590    0.47440    1.000
    C7       C        0.24390    0.09810    0.39570    1.000
    H3       H        0.26950    0.05520    0.36630    1.000
    C8       C        0.12910    0.29890    0.53140    1.000
    C9       C        0.36980    0.09210    0.51270    1.000
    C10      C        0.37170    0.79840    0.47210    1.000
    C11      C        0.32940    0.73070    0.51480    1.000
    C12      C        0.37180    0.69940    0.60190    1.000
    H4       H        0.42300    0.72590    0.62770    1.000
    C13      C        0.33880    0.63640    0.64180    1.000
    C14      C        0.25970    0.59760    0.60640    1.000
    H5       H        0.23620    0.55250    0.63540    1.000
    C15      C        0.21410    0.62950    0.52220    1.000
    C16      C        0.25370    0.69150    0.48440    1.000
    H6       H        0.22620    0.71010    0.43080    1.000
    C17      C        0.38060    0.60370    0.73110    1.000
    C18      C        0.12840    0.59180    0.48670    1.000
    Cd3      Cd       0.54228    0.43180    0.10860    1.000
    Cd4      Cd       0.95767    0.56734    0.39137    1.000
    O13      O        0.85284    0.53540    0.26271    1.000
    O14      O        0.94627    0.64490    0.26408    1.000
    O15      O        0.59588    0.53400    0.02708    1.000
    O16      O        0.59436    0.62585    0.91654    1.000
    O17      O        0.83270    0.82690    0.90146    1.000
    O18      O        0.94637    0.82740    0.00344    1.000
    O19      O        0.55630    0.32770    0.99953    1.000
    O20      O        0.66970    0.32740    0.09950    1.000
    O21      O        0.55520    0.14930    0.73710    1.000
    O22      O        0.64710    0.04050    0.73532    1.000
    O23      O        0.90560    0.12350    0.08443    1.000
    O24      O        0.90578    0.03720    0.97600    1.000
    C19      C        0.88230    0.60330    0.22910    1.000
    C20      C        0.83350    0.63360    0.13990    1.000
    C21      C        0.87110    0.70040    0.09910    1.000
    H7       H        0.92320    0.72490    0.12490    1.000
    C22      C        0.83210    0.73040    0.02150    1.000
    C23      C        0.75400    0.69390    0.98480    1.000
    H8       H        0.72620    0.71500    0.93220    1.000
    C24      C        0.71640    0.62590    0.02560    1.000
    C25      C        0.75610    0.59810    0.10430    1.000
    H9       H        0.73050    0.55520    0.13370    1.000
    C26      C        0.87090    0.79890    0.96860    1.000
    C27      C        0.63020    0.59210    0.98730    1.000
    C28      C        0.62830    0.29840    0.02790    1.000
    C29      C        0.67060    0.23070    0.98520    1.000
    C30      C        0.62820    0.19940    0.89810    1.000
    H10      H        0.57700    0.22590    0.87230    1.000
    C31      C        0.66120    0.13640    0.85820    1.000
    C32      C        0.74030    0.09760    0.89360    1.000
    H11      H        0.76380    0.05250    0.86460    1.000
    C33      C        0.78590    0.12950    0.97780    1.000
    C34      C        0.74630    0.19150    0.01560    1.000
    H12      H        0.77380    0.21010    0.06920    1.000
    C35      C        0.61940    0.10370    0.76890    1.000
    C36      C        0.87160    0.09180    0.01330    1.000
    Cd5      Cd       0.54228    0.06820    0.60860    1.000
    Cd6      Cd       0.95767    0.93266    0.89137    1.000
    O25      O        0.85284    0.96460    0.76271    1.000
    O26      O        0.94627    0.85510    0.76408    1.000
    O27      O        0.59588    0.96600    0.52708    1.000
    O28      O        0.59436    0.87415    0.41654    1.000
    O29      O        0.83270    0.67310    0.40146    1.000
    O30      O        0.94637    0.67260    0.50344    1.000
    O31      O        0.55630    0.17230    0.49953    1.000
    O32      O        0.66970    0.17260    0.59950    1.000
    O33      O        0.55520    0.35070    0.23710    1.000
    O34      O        0.64710    0.45950    0.23532    1.000
    O35      O        0.90560    0.37650    0.58443    1.000
    O36      O        0.90578    0.46280    0.47600    1.000
    C37      C        0.88230    0.89670    0.72910    1.000
    C38      C        0.83350    0.86640    0.63990    1.000
    C39      C        0.87110    0.79960    0.59910    1.000
    H13      H        0.92320    0.77510    0.62490    1.000
    C40      C        0.83210    0.76960    0.52150    1.000
    C41      C        0.75400    0.80610    0.48480    1.000
    H14      H        0.72620    0.78500    0.43220    1.000
    C42      C        0.71640    0.87410    0.52560    1.000
    C43      C        0.75610    0.90190    0.60430    1.000
    H15      H        0.73050    0.94480    0.63370    1.000
    C44      C        0.87090    0.70110    0.46860    1.000
    C45      C        0.63020    0.90790    0.48730    1.000
    C46      C        0.62830    0.20160    0.52790    1.000
    C47      C        0.67060    0.26930    0.48520    1.000
    C48      C        0.62820    0.30060    0.39810    1.000
    H16      H        0.57700    0.27410    0.37230    1.000
    C49      C        0.66120    0.36360    0.35820    1.000
    C50      C        0.74030    0.40240    0.39360    1.000
    H17      H        0.76380    0.44750    0.36460    1.000
    C51      C        0.78590    0.37050    0.47780    1.000
    C52      C        0.74630    0.30850    0.51560    1.000
    H18      H        0.77380    0.28990    0.56920    1.000
    C53      C        0.61940    0.39630    0.26890    1.000
    C54      C        0.87160    0.40820    0.51330    1.000
    Cd7      Cd       0.45772    0.56820    0.89140    1.000
    Cd8      Cd       0.04233    0.43266    0.60863    1.000
    O37      O        0.14716    0.46460    0.73729    1.000
    O38      O        0.05373    0.35510    0.73592    1.000
    O39      O        0.40412    0.46600    0.97292    1.000
    O40      O        0.40564    0.37415    0.08346    1.000
    O41      O        0.16730    0.17310    0.09854    1.000
    O42      O        0.05363    0.17260    0.99656    1.000
    O43      O        0.44370    0.67230    0.00047    1.000
    O44      O        0.33030    0.67260    0.90050    1.000
    O45      O        0.44480    0.85070    0.26290    1.000
    O46      O        0.35290    0.95950    0.26468    1.000
    O47      O        0.09440    0.87650    0.91557    1.000
    O48      O        0.09422    0.96280    0.02400    1.000
    C55      C        0.11770    0.39670    0.77090    1.000
    C56      C        0.16650    0.36640    0.86010    1.000
    C57      C        0.12890    0.29960    0.90090    1.000
    H19      H        0.07680    0.27510    0.87510    1.000
    C58      C        0.16790    0.26960    0.97850    1.000
    C59      C        0.24600    0.30610    0.01520    1.000
    H20      H        0.27380    0.28500    0.06780    1.000
    C60      C        0.28360    0.37410    0.97440    1.000
    C61      C        0.24390    0.40190    0.89570    1.000
    H21      H        0.26950    0.44480    0.86630    1.000
    C62      C        0.12910    0.20110    0.03140    1.000
    C63      C        0.36980    0.40790    0.01270    1.000
    C64      C        0.37170    0.70160    0.97210    1.000
    C65      C        0.32940    0.76930    0.01480    1.000
    C66      C        0.37180    0.80060    0.10190    1.000
    H22      H        0.42300    0.77410    0.12770    1.000
    C67      C        0.33880    0.86360    0.14180    1.000
    C68      C        0.25970    0.90240    0.10640    1.000
    H23      H        0.23620    0.94750    0.13540    1.000
    C69      C        0.21410    0.87050    0.02220    1.000
    C70      C        0.25370    0.80850    0.98440    1.000
    H24      H        0.22620    0.78990    0.93080    1.000
    C71      C        0.38060    0.89630    0.23110    1.000
    C72      C        0.12840    0.90820    0.98670    1.000
