# CIF file generated by openbabel 3.1.0, see https://openbabel.org
data_I
_chemical_name_common 'image0'
_cell_length_a 19.524
_cell_length_b 10.049
_cell_length_c 25.359
_cell_angle_alpha 90
_cell_angle_beta 95.409
_cell_angle_gamma 90
_space_group_name_H-M_alt 'P 1'
_space_group_name_Hall 'P 1'
loop_
    _symmetry_equiv_pos_as_xyz
    x,y,z
loop_
    _atom_site_label
    _atom_site_type_symbol
    _atom_site_fract_x
    _atom_site_fract_y
    _atom_site_fract_z
    _atom_site_occupancy
    Cd1      Cd       0.58928    0.04870    0.98369    1.000
    O1       O        0.68891    0.10720    0.94280    1.000
    O2       O        0.60674    0.01250    0.89424    1.000
    O3       O        0.02415    0.58320    0.54768    1.000
    O4       O        0.10823    0.66750    0.50662    1.000
    O5       O        0.07473    0.28240    0.53538    1.000
    O6       O        0.15180    0.14380    0.50677    1.000
    C1       C        0.66590    0.05980    0.89936    1.000
    C2       C        0.70900    0.05200    0.85408    1.000
    C3       C        0.68640    0.98520    0.80831    1.000
    H1       H        0.64270    0.94750    0.80440    1.000
    C4       C        0.72920    0.97480    0.76830    1.000
    H2       H        0.71340    0.93030    0.73730    1.000
    C5       C        0.79540    0.02860    0.77246    1.000
    C6       C        0.81710    0.09750    0.81810    1.000
    H3       H        0.86040    0.13660    0.82180    1.000
    C7       C        0.77360    0.10850    0.85890    1.000
    H4       H        0.78860    0.15460    0.88960    1.000
    C8       C        0.84160    0.01470    0.72875    1.000
    C9       C        0.83350    0.91060    0.69230    1.000
    H5       H        0.79750    0.85090    0.69430    1.000
    C10      C        0.87750    0.89410    0.65374    1.000
    H6       H        0.87160    0.82180    0.63080    1.000
    C11      C        0.93110    0.98430    0.64821    1.000
    C12      C        0.93600    0.08760    0.68380    1.000
    H7       H        0.97110    0.14920    0.68140    1.000
    C13      C        0.89260    0.10640    0.72290    1.000
    H8       H        0.89770    0.18020    0.74500    1.000
    C14      C        0.98130    0.96340    0.60852    1.000
    C15      C        0.99800    0.83560    0.59157    1.000
    H9       H        0.97660    0.76190    0.60490    1.000
    C16      C        0.04610    0.81730    0.55509    1.000
    C17      C        0.07970    0.92590    0.53749    1.000
    H10      H        0.11420    0.91340    0.51510    1.000
    C18      C        0.06360    0.05390    0.55232    1.000
    C19      C        0.01490    0.07190    0.58816    1.000
    H11      H        0.00450    0.15760    0.59880    1.000
    C20      C        0.05990    0.68010    0.53544    1.000
    C21      C        0.09930    0.17070    0.52976    1.000
    Cd2      Cd       0.08928    0.54870    0.98369    1.000
    O7       O        0.18891    0.60720    0.94280    1.000
    O8       O        0.10674    0.51250    0.89424    1.000
    O9       O        0.52415    0.08320    0.54768    1.000
    O10      O        0.60823    0.16750    0.50662    1.000
    O11      O        0.57473    0.78240    0.53538    1.000
    O12      O        0.65180    0.64380    0.50677    1.000
    C22      C        0.16590    0.55980    0.89936    1.000
    C23      C        0.20900    0.55200    0.85408    1.000
    C24      C        0.18640    0.48520    0.80831    1.000
    H12      H        0.14270    0.44750    0.80440    1.000
    C25      C        0.22920    0.47480    0.76830    1.000
    H13      H        0.21340    0.43030    0.73730    1.000
    C26      C        0.29540    0.52860    0.77246    1.000
    C27      C        0.31710    0.59750    0.81810    1.000
    H14      H        0.36040    0.63660    0.82180    1.000
    C28      C        0.27360    0.60850    0.85890    1.000
    H15      H        0.28860    0.65460    0.88960    1.000
    C29      C        0.34160    0.51470    0.72875    1.000
    C30      C        0.33350    0.41060    0.69230    1.000
    H16      H        0.29750    0.35090    0.69430    1.000
    C31      C        0.37750    0.39410    0.65374    1.000
    H17      H        0.37160    0.32180    0.63080    1.000
    C32      C        0.43110    0.48430    0.64821    1.000
    C33      C        0.43600    0.58760    0.68380    1.000
    H18      H        0.47110    0.64920    0.68140    1.000
    C34      C        0.39260    0.60640    0.72290    1.000
    H19      H        0.39770    0.68020    0.74500    1.000
    C35      C        0.48130    0.46340    0.60852    1.000
    C36      C        0.49800    0.33560    0.59157    1.000
    H20      H        0.47660    0.26190    0.60490    1.000
    C37      C        0.54610    0.31730    0.55509    1.000
    C38      C        0.57970    0.42590    0.53749    1.000
    H21      H        0.61420    0.41340    0.51510    1.000
    C39      C        0.56360    0.55390    0.55232    1.000
    C40      C        0.51490    0.57190    0.58816    1.000
    H22      H        0.50450    0.65760    0.59880    1.000
    C41      C        0.55990    0.18010    0.53544    1.000
    C42      C        0.59930    0.67070    0.52976    1.000
    Cd3      Cd       0.41072    0.04870    0.51631    1.000
    O13      O        0.31109    0.10720    0.55720    1.000
    O14      O        0.39326    0.01250    0.60576    1.000
    O15      O        0.97585    0.58320    0.95232    1.000
    O16      O        0.89177    0.66750    0.99338    1.000
    O17      O        0.92527    0.28240    0.96462    1.000
    O18      O        0.84820    0.14380    0.99323    1.000
    C43      C        0.33410    0.05980    0.60064    1.000
    C44      C        0.29100    0.05200    0.64592    1.000
    C45      C        0.31360    0.98520    0.69169    1.000
    H23      H        0.35730    0.94750    0.69560    1.000
    C46      C        0.27080    0.97480    0.73170    1.000
    H24      H        0.28660    0.93030    0.76270    1.000
    C47      C        0.20460    0.02860    0.72754    1.000
    C48      C        0.18290    0.09750    0.68190    1.000
    H25      H        0.13960    0.13660    0.67820    1.000
    C49      C        0.22640    0.10850    0.64110    1.000
    H26      H        0.21140    0.15460    0.61040    1.000
    C50      C        0.15840    0.01470    0.77125    1.000
    C51      C        0.16650    0.91060    0.80770    1.000
    H27      H        0.20250    0.85090    0.80570    1.000
    C52      C        0.12250    0.89410    0.84626    1.000
    H28      H        0.12840    0.82180    0.86920    1.000
    C53      C        0.06890    0.98430    0.85179    1.000
    C54      C        0.06400    0.08760    0.81620    1.000
    H29      H        0.02890    0.14920    0.81860    1.000
    C55      C        0.10740    0.10640    0.77710    1.000
    H30      H        0.10230    0.18020    0.75500    1.000
    C56      C        0.01870    0.96340    0.89148    1.000
    C57      C        0.00200    0.83560    0.90843    1.000
    H31      H        0.02340    0.76190    0.89510    1.000
    C58      C        0.95390    0.81730    0.94491    1.000
    C59      C        0.92030    0.92590    0.96251    1.000
    H32      H        0.88580    0.91340    0.98490    1.000
    C60      C        0.93640    0.05390    0.94768    1.000
    C61      C        0.98510    0.07190    0.91184    1.000
    H33      H        0.99550    0.15760    0.90120    1.000
    C62      C        0.94010    0.68010    0.96456    1.000
    C63      C        0.90070    0.17070    0.97024    1.000
    Cd4      Cd       0.91072    0.54870    0.51631    1.000
    O19      O        0.81109    0.60720    0.55720    1.000
    O20      O        0.89326    0.51250    0.60576    1.000
    O21      O        0.47585    0.08320    0.95232    1.000
    O22      O        0.39177    0.16750    0.99338    1.000
    O23      O        0.42527    0.78240    0.96462    1.000
    O24      O        0.34820    0.64380    0.99323    1.000
    C64      C        0.83410    0.55980    0.60064    1.000
    C65      C        0.79100    0.55200    0.64592    1.000
    C66      C        0.81360    0.48520    0.69169    1.000
    H34      H        0.85730    0.44750    0.69560    1.000
    C67      C        0.77080    0.47480    0.73170    1.000
    H35      H        0.78660    0.43030    0.76270    1.000
    C68      C        0.70460    0.52860    0.72754    1.000
    C69      C        0.68290    0.59750    0.68190    1.000
    H36      H        0.63960    0.63660    0.67820    1.000
    C70      C        0.72640    0.60850    0.64110    1.000
    H37      H        0.71140    0.65460    0.61040    1.000
    C71      C        0.65840    0.51470    0.77125    1.000
    C72      C        0.66650    0.41060    0.80770    1.000
    H38      H        0.70250    0.35090    0.80570    1.000
    C73      C        0.62250    0.39410    0.84626    1.000
    H39      H        0.62840    0.32180    0.86920    1.000
    C74      C        0.56890    0.48430    0.85179    1.000
    C75      C        0.56400    0.58760    0.81620    1.000
    H40      H        0.52890    0.64920    0.81860    1.000
    C76      C        0.60740    0.60640    0.77710    1.000
    H41      H        0.60230    0.68020    0.75500    1.000
    C77      C        0.51870    0.46340    0.89148    1.000
    C78      C        0.50200    0.33560    0.90843    1.000
    H42      H        0.52340    0.26190    0.89510    1.000
    C79      C        0.45390    0.31730    0.94491    1.000
    C80      C        0.42030    0.42590    0.96251    1.000
    H43      H        0.38580    0.41340    0.98490    1.000
    C81      C        0.43640    0.55390    0.94768    1.000
    C82      C        0.48510    0.57190    0.91184    1.000
    H44      H        0.49550    0.65760    0.90120    1.000
    C83      C        0.44010    0.18010    0.96456    1.000
    C84      C        0.40070    0.67070    0.97024    1.000
    Cd5      Cd       0.41072    0.95130    0.01631    1.000
    O25      O        0.31109    0.89280    0.05720    1.000
    O26      O        0.39326    0.98750    0.10576    1.000
    O27      O        0.97585    0.41680    0.45232    1.000
    O28      O        0.89177    0.33250    0.49338    1.000
    O29      O        0.92527    0.71760    0.46462    1.000
    O30      O        0.84820    0.85620    0.49323    1.000
    C85      C        0.33410    0.94020    0.10064    1.000
    C86      C        0.29100    0.94800    0.14592    1.000
    C87      C        0.31360    0.01480    0.19169    1.000
    H45      H        0.35730    0.05250    0.19560    1.000
    C88      C        0.27080    0.02520    0.23170    1.000
    H46      H        0.28660    0.06970    0.26270    1.000
    C89      C        0.20460    0.97140    0.22754    1.000
    C90      C        0.18290    0.90250    0.18190    1.000
    H47      H        0.13960    0.86340    0.17820    1.000
    C91      C        0.22640    0.89150    0.14110    1.000
    H48      H        0.21140    0.84540    0.11040    1.000
    C92      C        0.15840    0.98530    0.27125    1.000
    C93      C        0.16650    0.08940    0.30770    1.000
    H49      H        0.20250    0.14910    0.30570    1.000
    C94      C        0.12250    0.10590    0.34626    1.000
    H50      H        0.12840    0.17820    0.36920    1.000
    C95      C        0.06890    0.01570    0.35179    1.000
    C96      C        0.06400    0.91240    0.31620    1.000
    H51      H        0.02890    0.85080    0.31860    1.000
    C97      C        0.10740    0.89360    0.27710    1.000
    H52      H        0.10230    0.81980    0.25500    1.000
    C98      C        0.01870    0.03660    0.39148    1.000
    C99      C        0.00200    0.16440    0.40843    1.000
    H53      H        0.02340    0.23810    0.39510    1.000
    C100     C        0.95390    0.18270    0.44491    1.000
    C101     C        0.92030    0.07410    0.46251    1.000
    H54      H        0.88580    0.08660    0.48490    1.000
    C102     C        0.93640    0.94610    0.44768    1.000
    C103     C        0.98510    0.92810    0.41184    1.000
    H55      H        0.99550    0.84240    0.40120    1.000
    C104     C        0.94010    0.31990    0.46456    1.000
    C105     C        0.90070    0.82930    0.47024    1.000
    Cd6      Cd       0.91072    0.45130    0.01631    1.000
    O31      O        0.81109    0.39280    0.05720    1.000
    O32      O        0.89326    0.48750    0.10576    1.000
    O33      O        0.47585    0.91680    0.45232    1.000
    O34      O        0.39177    0.83250    0.49338    1.000
    O35      O        0.42527    0.21760    0.46462    1.000
    O36      O        0.34820    0.35620    0.49323    1.000
    C106     C        0.83410    0.44020    0.10064    1.000
    C107     C        0.79100    0.44800    0.14592    1.000
    C108     C        0.81360    0.51480    0.19169    1.000
    H56      H        0.85730    0.55250    0.19560    1.000
    C109     C        0.77080    0.52520    0.23170    1.000
    H57      H        0.78660    0.56970    0.26270    1.000
    C110     C        0.70460    0.47140    0.22754    1.000
    C111     C        0.68290    0.40250    0.18190    1.000
    H58      H        0.63960    0.36340    0.17820    1.000
    C112     C        0.72640    0.39150    0.14110    1.000
    H59      H        0.71140    0.34540    0.11040    1.000
    C113     C        0.65840    0.48530    0.27125    1.000
    C114     C        0.66650    0.58940    0.30770    1.000
    H60      H        0.70250    0.64910    0.30570    1.000
    C115     C        0.62250    0.60590    0.34626    1.000
    H61      H        0.62840    0.67820    0.36920    1.000
    C116     C        0.56890    0.51570    0.35179    1.000
    C117     C        0.56400    0.41240    0.31620    1.000
    H62      H        0.52890    0.35080    0.31860    1.000
    C118     C        0.60740    0.39360    0.27710    1.000
    H63      H        0.60230    0.31980    0.25500    1.000
    C119     C        0.51870    0.53660    0.39148    1.000
    C120     C        0.50200    0.66440    0.40843    1.000
    H64      H        0.52340    0.73810    0.39510    1.000
    C121     C        0.45390    0.68270    0.44491    1.000
    C122     C        0.42030    0.57410    0.46251    1.000
    H65      H        0.38580    0.58660    0.48490    1.000
    C123     C        0.43640    0.44610    0.44768    1.000
    C124     C        0.48510    0.42810    0.41184    1.000
    H66      H        0.49550    0.34240    0.40120    1.000
    C125     C        0.44010    0.81990    0.46456    1.000
    C126     C        0.40070    0.32930    0.47024    1.000
    Cd7      Cd       0.58928    0.95130    0.48369    1.000
    O37      O        0.68891    0.89280    0.44280    1.000
    O38      O        0.60674    0.98750    0.39424    1.000
    O39      O        0.02415    0.41680    0.04768    1.000
    O40      O        0.10823    0.33250    0.00662    1.000
    O41      O        0.07473    0.71760    0.03538    1.000
    O42      O        0.15180    0.85620    0.00677    1.000
    C127     C        0.66590    0.94020    0.39936    1.000
    C128     C        0.70900    0.94800    0.35408    1.000
    C129     C        0.68640    0.01480    0.30831    1.000
    H67      H        0.64270    0.05250    0.30440    1.000
    C130     C        0.72920    0.02520    0.26830    1.000
    H68      H        0.71340    0.06970    0.23730    1.000
    C131     C        0.79540    0.97140    0.27246    1.000
    C132     C        0.81710    0.90250    0.31810    1.000
    H69      H        0.86040    0.86340    0.32180    1.000
    C133     C        0.77360    0.89150    0.35890    1.000
    H70      H        0.78860    0.84540    0.38960    1.000
    C134     C        0.84160    0.98530    0.22875    1.000
    C135     C        0.83350    0.08940    0.19230    1.000
    H71      H        0.79750    0.14910    0.19430    1.000
    C136     C        0.87750    0.10590    0.15374    1.000
    H72      H        0.87160    0.17820    0.13080    1.000
    C137     C        0.93110    0.01570    0.14821    1.000
    C138     C        0.93600    0.91240    0.18380    1.000
    H73      H        0.97110    0.85080    0.18140    1.000
    C139     C        0.89260    0.89360    0.22290    1.000
    H74      H        0.89770    0.81980    0.24500    1.000
    C140     C        0.98130    0.03660    0.10852    1.000
    C141     C        0.99800    0.16440    0.09157    1.000
    H75      H        0.97660    0.23810    0.10490    1.000
    C142     C        0.04610    0.18270    0.05509    1.000
    C143     C        0.07970    0.07410    0.03749    1.000
    H76      H        0.11420    0.08660    0.01510    1.000
    C144     C        0.06360    0.94610    0.05232    1.000
    C145     C        0.01490    0.92810    0.08816    1.000
    H77      H        0.00450    0.84240    0.09880    1.000
    C146     C        0.05990    0.31990    0.03544    1.000
    C147     C        0.09930    0.82930    0.02976    1.000
    Cd8      Cd       0.08928    0.45130    0.48369    1.000
    O43      O        0.18891    0.39280    0.44280    1.000
    O44      O        0.10674    0.48750    0.39424    1.000
    O45      O        0.52415    0.91680    0.04768    1.000
    O46      O        0.60823    0.83250    0.00662    1.000
    O47      O        0.57473    0.21760    0.03538    1.000
    O48      O        0.65180    0.35620    0.00677    1.000
    C148     C        0.16590    0.44020    0.39936    1.000
    C149     C        0.20900    0.44800    0.35408    1.000
    C150     C        0.18640    0.51480    0.30831    1.000
    H78      H        0.14270    0.55250    0.30440    1.000
    C151     C        0.22920    0.52520    0.26830    1.000
    H79      H        0.21340    0.56970    0.23730    1.000
    C152     C        0.29540    0.47140    0.27246    1.000
    C153     C        0.31710    0.40250    0.31810    1.000
    H80      H        0.36040    0.36340    0.32180    1.000
    C154     C        0.27360    0.39150    0.35890    1.000
    H81      H        0.28860    0.34540    0.38960    1.000
    C155     C        0.34160    0.48530    0.22875    1.000
    C156     C        0.33350    0.58940    0.19230    1.000
    H82      H        0.29750    0.64910    0.19430    1.000
    C157     C        0.37750    0.60590    0.15374    1.000
    H83      H        0.37160    0.67820    0.13080    1.000
    C158     C        0.43110    0.51570    0.14821    1.000
    C159     C        0.43600    0.41240    0.18380    1.000
    H84      H        0.47110    0.35080    0.18140    1.000
    C160     C        0.39260    0.39360    0.22290    1.000
    H85      H        0.39770    0.31980    0.24500    1.000
    C161     C        0.48130    0.53660    0.10852    1.000
    C162     C        0.49800    0.66440    0.09157    1.000
    H86      H        0.47660    0.73810    0.10490    1.000
    C163     C        0.54610    0.68270    0.05509    1.000
    C164     C        0.57970    0.57410    0.03749    1.000
    H87      H        0.61420    0.58660    0.01510    1.000
    C165     C        0.56360    0.44610    0.05232    1.000
    C166     C        0.51490    0.42810    0.08816    1.000
    H88      H        0.50450    0.34240    0.09880    1.000
    C167     C        0.55990    0.81990    0.03544    1.000
    C168     C        0.59930    0.32930    0.02976    1.000
    Cd9      Cd       0.75000    0.25000    0.00000    1.000
    Cd10     Cd       0.25000    0.25000    0.50000    1.000
    Cd11     Cd       0.25000    0.75000    0.00000    1.000
    Cd12     Cd       0.75000    0.75000    0.50000    1.000
