# CIF file generated by openbabel 3.1.0, see https://openbabel.org
data_I
_chemical_name_common 'image0'
_cell_length_a 43.028
_cell_length_b 13
_cell_length_c 22.077
_cell_angle_alpha 90
_cell_angle_beta 114.964
_cell_angle_gamma 90
_space_group_name_H-M_alt 'P 1'
_space_group_name_Hall 'P 1'
loop_
    _symmetry_equiv_pos_as_xyz
    x,y,z
loop_
    _atom_site_label
    _atom_site_type_symbol
    _atom_site_fract_x
    _atom_site_fract_y
    _atom_site_fract_z
    _atom_site_occupancy
    Zn1      Zn       0.12344    0.79984    0.12723    1.000
    Zn2      Zn       0.10920    0.57952    0.19075    1.000
    Zn3      Zn       0.15731    0.77456    0.29280    1.000
    Br1      Br       0.09800    0.26180    0.92910    1.000
    Br2      Br       0.16412    0.61670    0.87120    1.000
    Br3      Br       0.98625    0.97340    0.83280    1.000
    Br4      Br       0.03640    0.85000    0.93190    1.000
    C1       C        0.31260    0.09320    0.24540    1.000
    Br5      Br       0.18880    0.45910    0.12750    1.000
    Br6      Br       0.31830    0.60370    0.39100    1.000
    C2       C        0.28090    0.03860    0.23500    1.000
    C3       C        0.25190    0.05820    0.17640    1.000
    C4       C        0.22130    0.00800    0.16430    1.000
    C5       C        0.21960    0.93900    0.21070    1.000
    C6       C        0.24870    0.91900    0.26930    1.000
    C7       C        0.27930    0.96900    0.28140    1.000
    Br7      Br       0.20958    0.63530    0.13460    1.000
    C8       C        0.22210    0.55400    0.26210    1.000
    C9       C        0.24220    0.50800    0.32290    1.000
    C10      C        0.27370    0.46500    0.33350    1.000
    C11      C        0.28510    0.46900    0.28330    1.000
    C12      C        0.26500    0.51500    0.22250    1.000
    C13      C        0.23350    0.55700    0.21180    1.000
    C14      C        0.12370    0.44900    0.89660    1.000
    C15      C        0.13530    0.55140    0.91060    1.000
    C16      C        0.12610    0.39440    0.83830    1.000
    C17      C        0.11660    0.61150    0.05680    1.000
    C18      C        0.11970    0.55040    0.00290    1.000
    C19      C        0.11180    0.45910    0.99160    1.000
    C20      C        0.11570    0.40810    0.94110    1.000
    C21      C        0.13420    0.59380    0.96630    1.000
    C22      C        0.06270    0.90520    0.09630    1.000
    C23      C        0.02290    0.95070    0.97690    1.000
    C24      C        0.03000    0.95690    0.04540    1.000
    C25      C        0.99240    0.99530    0.93110    1.000
    C26      C        0.18320    0.90650    0.20480    1.000
    O1       O        0.11711    0.73760    0.20200    1.000
    O2       O        0.10370    0.56890    0.09090    1.000
    O3       O        0.12810    0.70150    0.06530    1.000
    O4       O        0.10930    0.43280    0.78170    1.000
    O5       O        0.14380    0.31790    0.84980    1.000
    O6       O        0.30980    0.17630    0.21670    1.000
    O7       O        0.33930    0.04850    0.27860    1.000
    O8       O        0.17980    0.88100    0.25390    1.000
    O9       O        0.16440    0.88150    0.14800    1.000
    O10      O        0.08310    0.87980    0.07470    1.000
    O11      O        0.06630    0.88600    0.15320    1.000
    Zn4      Zn       0.62344    0.29984    0.12723    1.000
    Zn5      Zn       0.60920    0.07952    0.19075    1.000
    Zn6      Zn       0.65731    0.27456    0.29280    1.000
    Br8      Br       0.59800    0.76180    0.92910    1.000
    Br9      Br       0.66412    0.11670    0.87120    1.000
    Br10     Br       0.48625    0.47340    0.83280    1.000
    Br11     Br       0.53640    0.35000    0.93190    1.000
    C27      C        0.81260    0.59320    0.24540    1.000
    Br12     Br       0.68880    0.95910    0.12750    1.000
    Br13     Br       0.81830    0.10370    0.39100    1.000
    C28      C        0.78090    0.53860    0.23500    1.000
    C29      C        0.75190    0.55820    0.17640    1.000
    C30      C        0.72130    0.50800    0.16430    1.000
    C31      C        0.71960    0.43900    0.21070    1.000
    C32      C        0.74870    0.41900    0.26930    1.000
    C33      C        0.77930    0.46900    0.28140    1.000
    Br14     Br       0.70958    0.13530    0.13460    1.000
    C34      C        0.72210    0.05400    0.26210    1.000
    C35      C        0.74220    0.00800    0.32290    1.000
    C36      C        0.77370    0.96500    0.33350    1.000
    C37      C        0.78510    0.96900    0.28330    1.000
    C38      C        0.76500    0.01500    0.22250    1.000
    C39      C        0.73350    0.05700    0.21180    1.000
    C40      C        0.62370    0.94900    0.89660    1.000
    C41      C        0.63530    0.05140    0.91060    1.000
    C42      C        0.62610    0.89440    0.83830    1.000
    C43      C        0.61660    0.11150    0.05680    1.000
    C44      C        0.61970    0.05040    0.00290    1.000
    C45      C        0.61180    0.95910    0.99160    1.000
    C46      C        0.61570    0.90810    0.94110    1.000
    C47      C        0.63420    0.09380    0.96630    1.000
    C48      C        0.56270    0.40520    0.09630    1.000
    C49      C        0.52290    0.45070    0.97690    1.000
    C50      C        0.53000    0.45690    0.04540    1.000
    C51      C        0.49240    0.49530    0.93110    1.000
    C52      C        0.68320    0.40650    0.20480    1.000
    O12      O        0.61711    0.23760    0.20200    1.000
    O13      O        0.60370    0.06890    0.09090    1.000
    O14      O        0.62810    0.20150    0.06530    1.000
    O15      O        0.60930    0.93280    0.78170    1.000
    O16      O        0.64380    0.81790    0.84980    1.000
    O17      O        0.80980    0.67630    0.21670    1.000
    O18      O        0.83930    0.54850    0.27860    1.000
    O19      O        0.67980    0.38100    0.25390    1.000
    O20      O        0.66440    0.38150    0.14800    1.000
    O21      O        0.58310    0.37980    0.07470    1.000
    O22      O        0.56630    0.38600    0.15320    1.000
    Zn7      Zn       0.87656    0.79984    0.37277    1.000
    Zn8      Zn       0.89080    0.57952    0.30925    1.000
    Zn9      Zn       0.84269    0.77456    0.20720    1.000
    Br15     Br       0.90200    0.26180    0.57090    1.000
    Br16     Br       0.83588    0.61670    0.62880    1.000
    Br17     Br       0.01375    0.97340    0.66720    1.000
    Br18     Br       0.96360    0.85000    0.56810    1.000
    C53      C        0.68740    0.09320    0.25460    1.000
    Br19     Br       0.81120    0.45910    0.37250    1.000
    Br20     Br       0.68170    0.60370    0.10900    1.000
    C54      C        0.71910    0.03860    0.26500    1.000
    C55      C        0.74810    0.05820    0.32360    1.000
    C56      C        0.77870    0.00800    0.33570    1.000
    C57      C        0.78040    0.93900    0.28930    1.000
    C58      C        0.75130    0.91900    0.23070    1.000
    C59      C        0.72070    0.96900    0.21860    1.000
    Br21     Br       0.79042    0.63530    0.36540    1.000
    C60      C        0.77790    0.55400    0.23790    1.000
    C61      C        0.75780    0.50800    0.17710    1.000
    C62      C        0.72630    0.46500    0.16650    1.000
    C63      C        0.71490    0.46900    0.21670    1.000
    C64      C        0.73500    0.51500    0.27750    1.000
    C65      C        0.76650    0.55700    0.28820    1.000
    C66      C        0.87630    0.44900    0.60340    1.000
    C67      C        0.86470    0.55140    0.58940    1.000
    C68      C        0.87390    0.39440    0.66170    1.000
    C69      C        0.88340    0.61150    0.44320    1.000
    C70      C        0.88030    0.55040    0.49710    1.000
    C71      C        0.88820    0.45910    0.50840    1.000
    C72      C        0.88430    0.40810    0.55890    1.000
    C73      C        0.86580    0.59380    0.53370    1.000
    C74      C        0.93730    0.90520    0.40370    1.000
    C75      C        0.97710    0.95070    0.52310    1.000
    C76      C        0.97000    0.95690    0.45460    1.000
    C77      C        0.00760    0.99530    0.56890    1.000
    C78      C        0.81680    0.90650    0.29520    1.000
    O23      O        0.88289    0.73760    0.29800    1.000
    O24      O        0.89630    0.56890    0.40910    1.000
    O25      O        0.87190    0.70150    0.43470    1.000
    O26      O        0.89070    0.43280    0.71830    1.000
    O27      O        0.85620    0.31790    0.65020    1.000
    O28      O        0.69020    0.17630    0.28330    1.000
    O29      O        0.66070    0.04850    0.22140    1.000
    O30      O        0.82020    0.88100    0.24610    1.000
    O31      O        0.83560    0.88150    0.35200    1.000
    O32      O        0.91690    0.87980    0.42530    1.000
    O33      O        0.93370    0.88600    0.34680    1.000
    Zn10     Zn       0.37656    0.29984    0.37277    1.000
    Zn11     Zn       0.39080    0.07952    0.30925    1.000
    Zn12     Zn       0.34269    0.27456    0.20720    1.000
    Br22     Br       0.40200    0.76180    0.57090    1.000
    Br23     Br       0.33588    0.11670    0.62880    1.000
    Br24     Br       0.51375    0.47340    0.66720    1.000
    Br25     Br       0.46360    0.35000    0.56810    1.000
    C79      C        0.18740    0.59320    0.25460    1.000
    Br26     Br       0.31120    0.95910    0.37250    1.000
    Br27     Br       0.18170    0.10370    0.10900    1.000
    C80      C        0.21910    0.53860    0.26500    1.000
    C81      C        0.24810    0.55820    0.32360    1.000
    C82      C        0.27870    0.50800    0.33570    1.000
    C83      C        0.28040    0.43900    0.28930    1.000
    C84      C        0.25130    0.41900    0.23070    1.000
    C85      C        0.22070    0.46900    0.21860    1.000
    Br28     Br       0.29042    0.13530    0.36540    1.000
    C86      C        0.27790    0.05400    0.23790    1.000
    C87      C        0.25780    0.00800    0.17710    1.000
    C88      C        0.22630    0.96500    0.16650    1.000
    C89      C        0.21490    0.96900    0.21670    1.000
    C90      C        0.23500    0.01500    0.27750    1.000
    C91      C        0.26650    0.05700    0.28820    1.000
    C92      C        0.37630    0.94900    0.60340    1.000
    C93      C        0.36470    0.05140    0.58940    1.000
    C94      C        0.37390    0.89440    0.66170    1.000
    C95      C        0.38340    0.11150    0.44320    1.000
    C96      C        0.38030    0.05040    0.49710    1.000
    C97      C        0.38820    0.95910    0.50840    1.000
    C98      C        0.38430    0.90810    0.55890    1.000
    C99      C        0.36580    0.09380    0.53370    1.000
    C100     C        0.43730    0.40520    0.40370    1.000
    C101     C        0.47710    0.45070    0.52310    1.000
    C102     C        0.47000    0.45690    0.45460    1.000
    C103     C        0.50760    0.49530    0.56890    1.000
    C104     C        0.31680    0.40650    0.29520    1.000
    O34      O        0.38289    0.23760    0.29800    1.000
    O35      O        0.39630    0.06890    0.40910    1.000
    O36      O        0.37190    0.20150    0.43470    1.000
    O37      O        0.39070    0.93280    0.71830    1.000
    O38      O        0.35620    0.81790    0.65020    1.000
    O39      O        0.19020    0.67630    0.28330    1.000
    O40      O        0.16070    0.54850    0.22140    1.000
    O41      O        0.32020    0.38100    0.24610    1.000
    O42      O        0.33560    0.38150    0.35200    1.000
    O43      O        0.41690    0.37980    0.42530    1.000
    O44      O        0.43370    0.38600    0.34680    1.000
    Zn13     Zn       0.87656    0.20016    0.87277    1.000
    Zn14     Zn       0.89080    0.42048    0.80925    1.000
    Zn15     Zn       0.84269    0.22544    0.70720    1.000
    Br29     Br       0.90200    0.73820    0.07090    1.000
    Br30     Br       0.83588    0.38330    0.12880    1.000
    Br31     Br       0.01375    0.02660    0.16720    1.000
    Br32     Br       0.96360    0.15000    0.06810    1.000
    C105     C        0.68740    0.90680    0.75460    1.000
    Br33     Br       0.81120    0.54090    0.87250    1.000
    Br34     Br       0.68170    0.39630    0.60900    1.000
    C106     C        0.71910    0.96140    0.76500    1.000
    C107     C        0.74810    0.94180    0.82360    1.000
    C108     C        0.77870    0.99200    0.83570    1.000
    C109     C        0.78040    0.06100    0.78930    1.000
    C110     C        0.75130    0.08100    0.73070    1.000
    C111     C        0.72070    0.03100    0.71860    1.000
    Br35     Br       0.79042    0.36470    0.86540    1.000
    C112     C        0.77790    0.44600    0.73790    1.000
    C113     C        0.75780    0.49200    0.67710    1.000
    C114     C        0.72630    0.53500    0.66650    1.000
    C115     C        0.71490    0.53100    0.71670    1.000
    C116     C        0.73500    0.48500    0.77750    1.000
    C117     C        0.76650    0.44300    0.78820    1.000
    C118     C        0.87630    0.55100    0.10340    1.000
    C119     C        0.86470    0.44860    0.08940    1.000
    C120     C        0.87390    0.60560    0.16170    1.000
    C121     C        0.88340    0.38850    0.94320    1.000
    C122     C        0.88030    0.44960    0.99710    1.000
    C123     C        0.88820    0.54090    0.00840    1.000
    C124     C        0.88430    0.59190    0.05890    1.000
    C125     C        0.86580    0.40620    0.03370    1.000
    C126     C        0.93730    0.09480    0.90370    1.000
    C127     C        0.97710    0.04930    0.02310    1.000
    C128     C        0.97000    0.04310    0.95460    1.000
    C129     C        0.00760    0.00470    0.06890    1.000
    C130     C        0.81680    0.09350    0.79520    1.000
    O45      O        0.88289    0.26240    0.79800    1.000
    O46      O        0.89630    0.43110    0.90910    1.000
    O47      O        0.87190    0.29850    0.93470    1.000
    O48      O        0.89070    0.56720    0.21830    1.000
    O49      O        0.85620    0.68210    0.15020    1.000
    O50      O        0.69020    0.82370    0.78330    1.000
    O51      O        0.66070    0.95150    0.72140    1.000
    O52      O        0.82020    0.11900    0.74610    1.000
    O53      O        0.83560    0.11850    0.85200    1.000
    O54      O        0.91690    0.12020    0.92530    1.000
    O55      O        0.93370    0.11400    0.84680    1.000
    Zn16     Zn       0.37656    0.70016    0.87277    1.000
    Zn17     Zn       0.39080    0.92048    0.80925    1.000
    Zn18     Zn       0.34269    0.72544    0.70720    1.000
    Br36     Br       0.40200    0.23820    0.07090    1.000
    Br37     Br       0.33588    0.88330    0.12880    1.000
    Br38     Br       0.51375    0.52660    0.16720    1.000
    Br39     Br       0.46360    0.65000    0.06810    1.000
    C131     C        0.18740    0.40680    0.75460    1.000
    Br40     Br       0.31120    0.04090    0.87250    1.000
    Br41     Br       0.18170    0.89630    0.60900    1.000
    C132     C        0.21910    0.46140    0.76500    1.000
    C133     C        0.24810    0.44180    0.82360    1.000
    C134     C        0.27870    0.49200    0.83570    1.000
    C135     C        0.28040    0.56100    0.78930    1.000
    C136     C        0.25130    0.58100    0.73070    1.000
    C137     C        0.22070    0.53100    0.71860    1.000
    Br42     Br       0.29042    0.86470    0.86540    1.000
    C138     C        0.27790    0.94600    0.73790    1.000
    C139     C        0.25780    0.99200    0.67710    1.000
    C140     C        0.22630    0.03500    0.66650    1.000
    C141     C        0.21490    0.03100    0.71670    1.000
    C142     C        0.23500    0.98500    0.77750    1.000
    C143     C        0.26650    0.94300    0.78820    1.000
    C144     C        0.37630    0.05100    0.10340    1.000
    C145     C        0.36470    0.94860    0.08940    1.000
    C146     C        0.37390    0.10560    0.16170    1.000
    C147     C        0.38340    0.88850    0.94320    1.000
    C148     C        0.38030    0.94960    0.99710    1.000
    C149     C        0.38820    0.04090    0.00840    1.000
    C150     C        0.38430    0.09190    0.05890    1.000
    C151     C        0.36580    0.90620    0.03370    1.000
    C152     C        0.43730    0.59480    0.90370    1.000
    C153     C        0.47710    0.54930    0.02310    1.000
    C154     C        0.47000    0.54310    0.95460    1.000
    C155     C        0.50760    0.50470    0.06890    1.000
    C156     C        0.31680    0.59350    0.79520    1.000
    O56      O        0.38289    0.76240    0.79800    1.000
    O57      O        0.39630    0.93110    0.90910    1.000
    O58      O        0.37190    0.79850    0.93470    1.000
    O59      O        0.39070    0.06720    0.21830    1.000
    O60      O        0.35620    0.18210    0.15020    1.000
    O61      O        0.19020    0.32370    0.78330    1.000
    O62      O        0.16070    0.45150    0.72140    1.000
    O63      O        0.32020    0.61900    0.74610    1.000
    O64      O        0.33560    0.61850    0.85200    1.000
    O65      O        0.41690    0.62020    0.92530    1.000
    O66      O        0.43370    0.61400    0.84680    1.000
    Zn19     Zn       0.12344    0.20016    0.62723    1.000
    Zn20     Zn       0.10920    0.42048    0.69075    1.000
    Zn21     Zn       0.15731    0.22544    0.79280    1.000
    Br43     Br       0.09800    0.73820    0.42910    1.000
    Br44     Br       0.16412    0.38330    0.37120    1.000
    Br45     Br       0.98625    0.02660    0.33280    1.000
    Br46     Br       0.03640    0.15000    0.43190    1.000
    C157     C        0.31260    0.90680    0.74540    1.000
    Br47     Br       0.18880    0.54090    0.62750    1.000
    Br48     Br       0.31830    0.39630    0.89100    1.000
    C158     C        0.28090    0.96140    0.73500    1.000
    C159     C        0.25190    0.94180    0.67640    1.000
    C160     C        0.22130    0.99200    0.66430    1.000
    C161     C        0.21960    0.06100    0.71070    1.000
    C162     C        0.24870    0.08100    0.76930    1.000
    C163     C        0.27930    0.03100    0.78140    1.000
    Br49     Br       0.20958    0.36470    0.63460    1.000
    C164     C        0.22210    0.44600    0.76210    1.000
    C165     C        0.24220    0.49200    0.82290    1.000
    C166     C        0.27370    0.53500    0.83350    1.000
    C167     C        0.28510    0.53100    0.78330    1.000
    C168     C        0.26500    0.48500    0.72250    1.000
    C169     C        0.23350    0.44300    0.71180    1.000
    C170     C        0.12370    0.55100    0.39660    1.000
    C171     C        0.13530    0.44860    0.41060    1.000
    C172     C        0.12610    0.60560    0.33830    1.000
    C173     C        0.11660    0.38850    0.55680    1.000
    C174     C        0.11970    0.44960    0.50290    1.000
    C175     C        0.11180    0.54090    0.49160    1.000
    C176     C        0.11570    0.59190    0.44110    1.000
    C177     C        0.13420    0.40620    0.46630    1.000
    C178     C        0.06270    0.09480    0.59630    1.000
    C179     C        0.02290    0.04930    0.47690    1.000
    C180     C        0.03000    0.04310    0.54540    1.000
    C181     C        0.99240    0.00470    0.43110    1.000
    C182     C        0.18320    0.09350    0.70480    1.000
    O67      O        0.11711    0.26240    0.70200    1.000
    O68      O        0.10370    0.43110    0.59090    1.000
    O69      O        0.12810    0.29850    0.56530    1.000
    O70      O        0.10930    0.56720    0.28170    1.000
    O71      O        0.14380    0.68210    0.34980    1.000
    O72      O        0.30980    0.82370    0.71670    1.000
    O73      O        0.33930    0.95150    0.77860    1.000
    O74      O        0.17980    0.11900    0.75390    1.000
    O75      O        0.16440    0.11850    0.64800    1.000
    O76      O        0.08310    0.12020    0.57470    1.000
    O77      O        0.06630    0.11400    0.65320    1.000
    Zn22     Zn       0.62344    0.70016    0.62723    1.000
    Zn23     Zn       0.60920    0.92048    0.69075    1.000
    Zn24     Zn       0.65731    0.72544    0.79280    1.000
    Br50     Br       0.59800    0.23820    0.42910    1.000
    Br51     Br       0.66412    0.88330    0.37120    1.000
    Br52     Br       0.48625    0.52660    0.33280    1.000
    Br53     Br       0.53640    0.65000    0.43190    1.000
    C183     C        0.81260    0.40680    0.74540    1.000
    Br54     Br       0.68880    0.04090    0.62750    1.000
    Br55     Br       0.81830    0.89630    0.89100    1.000
    C184     C        0.78090    0.46140    0.73500    1.000
    C185     C        0.75190    0.44180    0.67640    1.000
    C186     C        0.72130    0.49200    0.66430    1.000
    C187     C        0.71960    0.56100    0.71070    1.000
    C188     C        0.74870    0.58100    0.76930    1.000
    C189     C        0.77930    0.53100    0.78140    1.000
    Br56     Br       0.70958    0.86470    0.63460    1.000
    C190     C        0.72210    0.94600    0.76210    1.000
    C191     C        0.74220    0.99200    0.82290    1.000
    C192     C        0.77370    0.03500    0.83350    1.000
    C193     C        0.78510    0.03100    0.78330    1.000
    C194     C        0.76500    0.98500    0.72250    1.000
    C195     C        0.73350    0.94300    0.71180    1.000
    C196     C        0.62370    0.05100    0.39660    1.000
    C197     C        0.63530    0.94860    0.41060    1.000
    C198     C        0.62610    0.10560    0.33830    1.000
    C199     C        0.61660    0.88850    0.55680    1.000
    C200     C        0.61970    0.94960    0.50290    1.000
    C201     C        0.61180    0.04090    0.49160    1.000
    C202     C        0.61570    0.09190    0.44110    1.000
    C203     C        0.63420    0.90620    0.46630    1.000
    C204     C        0.56270    0.59480    0.59630    1.000
    C205     C        0.52290    0.54930    0.47690    1.000
    C206     C        0.53000    0.54310    0.54540    1.000
    C207     C        0.49240    0.50470    0.43110    1.000
    C208     C        0.68320    0.59350    0.70480    1.000
    O78      O        0.61711    0.76240    0.70200    1.000
    O79      O        0.60370    0.93110    0.59090    1.000
    O80      O        0.62810    0.79850    0.56530    1.000
    O81      O        0.60930    0.06720    0.28170    1.000
    O82      O        0.64380    0.18210    0.34980    1.000
    O83      O        0.80980    0.32370    0.71670    1.000
    O84      O        0.83930    0.45150    0.77860    1.000
    O85      O        0.67980    0.61900    0.75390    1.000
    O86      O        0.66440    0.61850    0.64800    1.000
    O87      O        0.58310    0.62020    0.57470    1.000
    O88      O        0.56630    0.61400    0.65320    1.000
