# CIF file generated by openbabel 3.1.0, see https://openbabel.org
data_I
_chemical_name_common 'CAYDEN_clean'
_cell_length_a 7.9073
_cell_length_b 12.2996
_cell_length_c 12.2996
_cell_angle_alpha 90
_cell_angle_beta 90
_cell_angle_gamma 90
_space_group_name_H-M_alt 'P 1'
_space_group_name_Hall 'P 1'
loop_
    _symmetry_equiv_pos_as_xyz
    x,y,z
loop_
    _atom_site_label
    _atom_site_type_symbol
    _atom_site_fract_x
    _atom_site_fract_y
    _atom_site_fract_z
    _atom_site_occupancy
    Cu1      Cu       0.34757    0.32355    0.01540    1.000
    Cu2      Cu       0.84757    0.67645    0.98460    1.000
    Cu3      Cu       0.09757    0.98460    0.32355    1.000
    Cu4      Cu       0.59757    0.01540    0.67645    1.000
    H1       H        0.46020    0.05410    0.22380    1.000
    H2       H        0.49330    0.09650    0.10560    1.000
    H3       H        0.67300    0.18540    0.22940    1.000
    H4       H        0.51520    0.22930    0.29340    1.000
    H5       H        0.66470    0.39030    0.26270    1.000
    H6       H        0.77890    0.36410    0.16160    1.000
    H7       H        0.69500    0.54670    0.15830    1.000
    H8       H        0.50480    0.51140    0.15880    1.000
    H9       H        0.96020    0.94590    0.77620    1.000
    H10      H        0.99330    0.90350    0.89440    1.000
    H11      H        0.17300    0.81460    0.77060    1.000
    H12      H        0.01520    0.77070    0.70660    1.000
    H13      H        0.16470    0.60970    0.73730    1.000
    H14      H        0.27890    0.63590    0.83840    1.000
    H15      H        0.19500    0.45330    0.84170    1.000
    H16      H        0.00480    0.48860    0.84120    1.000
    H17      H        0.21020    0.77620    0.05410    1.000
    H18      H        0.24330    0.89440    0.09650    1.000
    H19      H        0.42300    0.77060    0.18540    1.000
    H20      H        0.26520    0.70660    0.22930    1.000
    H21      H        0.41470    0.73730    0.39030    1.000
    H22      H        0.52890    0.83840    0.36410    1.000
    H23      H        0.44500    0.84170    0.54670    1.000
    H24      H        0.25480    0.84120    0.51140    1.000
    H25      H        0.71020    0.22380    0.94590    1.000
    H26      H        0.74330    0.10560    0.90350    1.000
    H27      H        0.92300    0.22940    0.81460    1.000
    H28      H        0.76520    0.29340    0.77070    1.000
    H29      H        0.91470    0.26270    0.60970    1.000
    H30      H        0.02890    0.16160    0.63590    1.000
    H31      H        0.94500    0.15830    0.45330    1.000
    H32      H        0.75480    0.15880    0.48860    1.000
    C1       C        0.26670    0.14550    0.16560    1.000
    C2       C        0.44970    0.11680    0.17640    1.000
    C3       C        0.55660    0.20920    0.22200    1.000
    C4       C        0.66540    0.38380    0.18410    1.000
    C5       C        0.61670    0.49140    0.13340    1.000
    C6       C        0.61620    0.49050    0.01140    1.000
    C7       C        0.76670    0.85450    0.83440    1.000
    C8       C        0.94970    0.88320    0.82360    1.000
    C9       C        0.05660    0.79080    0.77800    1.000
    C10      C        0.16540    0.61620    0.81590    1.000
    C11      C        0.11670    0.50860    0.86660    1.000
    C12      C        0.11620    0.50950    0.98860    1.000
    C13      C        0.01670    0.83440    0.14550    1.000
    C14      C        0.19970    0.82360    0.11680    1.000
    C15      C        0.30660    0.77800    0.20920    1.000
    C16      C        0.41540    0.81590    0.38380    1.000
    C17      C        0.36670    0.86660    0.49140    1.000
    C18      C        0.36620    0.98860    0.49050    1.000
    C19      C        0.51670    0.16560    0.85450    1.000
    C20      C        0.69970    0.17640    0.88320    1.000
    C21      C        0.80660    0.22200    0.79080    1.000
    C22      C        0.91540    0.18410    0.61620    1.000
    C23      C        0.86670    0.13340    0.50860    1.000
    C24      C        0.86620    0.01140    0.50950    1.000
    N1       N        0.21060    0.22540    0.10110    1.000
    N2       N        0.03870    0.22590    0.10870    1.000
    N3       N        0.99390    0.14700    0.17290    1.000
    N4       N        0.13640    0.09530    0.21140    1.000
    N5       N        0.51600    0.42180    0.95320    1.000
    N6       N        0.54570    0.44350    0.84770    1.000
    N7       N        0.65710    0.52160    0.84270    1.000
    N8       N        0.70130    0.55100    0.94530    1.000
    N9       N        0.71060    0.77460    0.89890    1.000
    N10      N        0.53870    0.77410    0.89130    1.000
    N11      N        0.49390    0.85300    0.82710    1.000
    N12      N        0.63640    0.90470    0.78860    1.000
    N13      N        0.01600    0.57820    0.04680    1.000
    N14      N        0.04570    0.55650    0.15230    1.000
    N15      N        0.15710    0.47840    0.15730    1.000
    N16      N        0.20130    0.44900    0.05470    1.000
    N17      N        0.96060    0.89890    0.22540    1.000
    N18      N        0.78870    0.89130    0.22590    1.000
    N19      N        0.74390    0.82710    0.14700    1.000
    N20      N        0.88640    0.78860    0.09530    1.000
    N21      N        0.26600    0.04680    0.42180    1.000
    N22      N        0.29570    0.15230    0.44350    1.000
    N23      N        0.40710    0.15730    0.52160    1.000
    N24      N        0.45130    0.05470    0.55100    1.000
    N25      N        0.46060    0.10110    0.77460    1.000
    N26      N        0.28870    0.10870    0.77410    1.000
    N27      N        0.24390    0.17290    0.85300    1.000
    N28      N        0.38640    0.21140    0.90470    1.000
    N29      N        0.76600    0.95320    0.57820    1.000
    N30      N        0.79570    0.84770    0.55650    1.000
    N31      N        0.90710    0.84270    0.47840    1.000
    N32      N        0.95130    0.94530    0.44900    1.000
    O1       O        0.54910    0.30090    0.15130    1.000
    O2       O        0.04910    0.69910    0.84870    1.000
    O3       O        0.29910    0.84870    0.30090    1.000
    O4       O        0.79910    0.15130    0.69910    1.000
