# CIF file generated by openbabel 3.1.0, see https://openbabel.org
data_I
_chemical_name_common 'image0'
_cell_length_a 29.6774
_cell_length_b 9.6295
_cell_length_c 7.9812
_cell_angle_alpha 90
_cell_angle_beta 97.69
_cell_angle_gamma 90
_space_group_name_H-M_alt 'P 1'
_space_group_name_Hall 'P 1'
loop_
    _symmetry_equiv_pos_as_xyz
    x,y,z
loop_
    _atom_site_label
    _atom_site_type_symbol
    _atom_site_fract_x
    _atom_site_fract_y
    _atom_site_fract_z
    _atom_site_occupancy
    O1       O        0.06556    0.93160    0.99190    1.000
    O2       O        0.07419    0.78540    0.21300    1.000
    H1       H        0.02390    0.86800    0.23800    1.000
    C1       C        0.13664    0.81980    0.06100    1.000
    C2       C        0.16435    0.73480    0.17290    1.000
    H2       H        0.15240    0.69560    0.26690    1.000
    C3       C        0.20863    0.70670    0.15000    1.000
    C4       C        0.22636    0.76380    0.01340    1.000
    C5       C        0.19870    0.84990    0.90030    1.000
    C6       C        0.15453    0.87630    0.92640    1.000
    H3       H        0.13610    0.93490    0.84970    1.000
    C7       C        0.23530    0.58430    0.24150    1.000
    H4       H        0.22420    0.56550    0.35070    1.000
    H5       H        0.23110    0.49930    0.17120    1.000
    C8       C        0.24290    0.64750    0.29550    1.000
    H6       H        0.25880    0.72410    0.36170    1.000
    H7       H        0.22680    0.59070    0.37210    1.000
    C9       C        0.21550    0.87640    0.72930    1.000
    H8       H        0.21140    0.79170    0.65870    1.000
    H9       H        0.19750    0.95220    0.66870    1.000
    C10      C        0.22340    0.94090    0.78290    1.000
    H10      H        0.20100    0.98160    0.69310    1.000
    H11      H        0.23940    0.01780    0.84820    1.000
    C11      C        0.08859    0.84730    0.09060    1.000
    O3       O        0.56556    0.43160    0.99190    1.000
    O4       O        0.57419    0.28540    0.21300    1.000
    H12      H        0.52390    0.36800    0.23800    1.000
    C12      C        0.63664    0.31980    0.06100    1.000
    C13      C        0.66435    0.23480    0.17290    1.000
    H13      H        0.65240    0.19560    0.26690    1.000
    C14      C        0.70863    0.20670    0.15000    1.000
    C15      C        0.72636    0.26380    0.01340    1.000
    C16      C        0.69870    0.34990    0.90030    1.000
    C17      C        0.65453    0.37630    0.92640    1.000
    H14      H        0.63610    0.43490    0.84970    1.000
    C18      C        0.73530    0.08430    0.24150    1.000
    H15      H        0.72420    0.06550    0.35070    1.000
    H16      H        0.73110    0.99930    0.17120    1.000
    C19      C        0.74290    0.14750    0.29550    1.000
    H17      H        0.75880    0.22410    0.36170    1.000
    H18      H        0.72680    0.09070    0.37210    1.000
    C20      C        0.71550    0.37640    0.72930    1.000
    H19      H        0.71140    0.29170    0.65870    1.000
    H20      H        0.69750    0.45220    0.66870    1.000
    C21      C        0.72340    0.44090    0.78290    1.000
    H21      H        0.70100    0.48160    0.69310    1.000
    H22      H        0.73940    0.51780    0.84820    1.000
    C22      C        0.58859    0.34730    0.09060    1.000
    O5       O        0.93444    0.93160    0.50810    1.000
    O6       O        0.92581    0.78540    0.28700    1.000
    H23      H        0.97610    0.86800    0.26200    1.000
    C23      C        0.86336    0.81980    0.43900    1.000
    C24      C        0.83565    0.73480    0.32710    1.000
    H24      H        0.84760    0.69560    0.23310    1.000
    C25      C        0.79137    0.70670    0.35000    1.000
    C26      C        0.77364    0.76380    0.48660    1.000
    C27      C        0.80130    0.84990    0.59970    1.000
    C28      C        0.84547    0.87630    0.57360    1.000
    H25      H        0.86390    0.93490    0.65030    1.000
    C29      C        0.76470    0.58430    0.25850    1.000
    H26      H        0.77580    0.56550    0.14930    1.000
    H27      H        0.76890    0.49930    0.32880    1.000
    C30      C        0.75710    0.64750    0.20450    1.000
    H28      H        0.74120    0.72410    0.13830    1.000
    H29      H        0.77320    0.59070    0.12790    1.000
    C31      C        0.78450    0.87640    0.77070    1.000
    H30      H        0.78860    0.79170    0.84130    1.000
    H31      H        0.80250    0.95220    0.83130    1.000
    C32      C        0.77660    0.94090    0.71710    1.000
    H32      H        0.79900    0.98160    0.80690    1.000
    H33      H        0.76060    0.01780    0.65180    1.000
    C33      C        0.91141    0.84730    0.40940    1.000
    O7       O        0.43444    0.43160    0.50810    1.000
    O8       O        0.42581    0.28540    0.28700    1.000
    H34      H        0.47610    0.36800    0.26200    1.000
    C34      C        0.36336    0.31980    0.43900    1.000
    C35      C        0.33565    0.23480    0.32710    1.000
    H35      H        0.34760    0.19560    0.23310    1.000
    C36      C        0.29137    0.20670    0.35000    1.000
    C37      C        0.27364    0.26380    0.48660    1.000
    C38      C        0.30130    0.34990    0.59970    1.000
    C39      C        0.34547    0.37630    0.57360    1.000
    H36      H        0.36390    0.43490    0.65030    1.000
    C40      C        0.26470    0.08430    0.25850    1.000
    H37      H        0.27580    0.06550    0.14930    1.000
    H38      H        0.26890    0.99930    0.32880    1.000
    C41      C        0.25710    0.14750    0.20450    1.000
    H39      H        0.24120    0.22410    0.13830    1.000
    H40      H        0.27320    0.09070    0.12790    1.000
    C42      C        0.28450    0.37640    0.77070    1.000
    H41      H        0.28860    0.29170    0.84130    1.000
    H42      H        0.30250    0.45220    0.83130    1.000
    C43      C        0.27660    0.44090    0.71710    1.000
    H43      H        0.29900    0.48160    0.80690    1.000
    H44      H        0.26060    0.51780    0.65180    1.000
    C44      C        0.41141    0.34730    0.40940    1.000
    O9       O        0.93444    0.06840    0.00810    1.000
    O10      O        0.92581    0.21460    0.78700    1.000
    H45      H        0.97610    0.13200    0.76200    1.000
    C45      C        0.86336    0.18020    0.93900    1.000
    C46      C        0.83565    0.26520    0.82710    1.000
    H46      H        0.84760    0.30440    0.73310    1.000
    C47      C        0.79137    0.29330    0.85000    1.000
    C48      C        0.77364    0.23620    0.98660    1.000
    C49      C        0.80130    0.15010    0.09970    1.000
    C50      C        0.84547    0.12370    0.07360    1.000
    H47      H        0.86390    0.06510    0.15030    1.000
    C51      C        0.76470    0.41570    0.75850    1.000
    H48      H        0.77580    0.43450    0.64930    1.000
    H49      H        0.76890    0.50070    0.82880    1.000
    C52      C        0.75710    0.35250    0.70450    1.000
    H50      H        0.74120    0.27590    0.63830    1.000
    H51      H        0.77320    0.40930    0.62790    1.000
    C53      C        0.78450    0.12360    0.27070    1.000
    H52      H        0.78860    0.20830    0.34130    1.000
    H53      H        0.80250    0.04780    0.33130    1.000
    C54      C        0.77660    0.05910    0.21710    1.000
    H54      H        0.79900    0.01840    0.30690    1.000
    H55      H        0.76060    0.98220    0.15180    1.000
    C55      C        0.91141    0.15270    0.90940    1.000
    O11      O        0.43444    0.56840    0.00810    1.000
    O12      O        0.42581    0.71460    0.78700    1.000
    H56      H        0.47610    0.63200    0.76200    1.000
    C56      C        0.36336    0.68020    0.93900    1.000
    C57      C        0.33565    0.76520    0.82710    1.000
    H57      H        0.34760    0.80440    0.73310    1.000
    C58      C        0.29137    0.79330    0.85000    1.000
    C59      C        0.27364    0.73620    0.98660    1.000
    C60      C        0.30130    0.65010    0.09970    1.000
    C61      C        0.34547    0.62370    0.07360    1.000
    H58      H        0.36390    0.56510    0.15030    1.000
    C62      C        0.26470    0.91570    0.75850    1.000
    H59      H        0.27580    0.93450    0.64930    1.000
    H60      H        0.26890    0.00070    0.82880    1.000
    C63      C        0.25710    0.85250    0.70450    1.000
    H61      H        0.24120    0.77590    0.63830    1.000
    H62      H        0.27320    0.90930    0.62790    1.000
    C64      C        0.28450    0.62360    0.27070    1.000
    H63      H        0.28860    0.70830    0.34130    1.000
    H64      H        0.30250    0.54780    0.33130    1.000
    C65      C        0.27660    0.55910    0.21710    1.000
    H65      H        0.29900    0.51840    0.30690    1.000
    H66      H        0.26060    0.48220    0.15180    1.000
    C66      C        0.41141    0.65270    0.90940    1.000
    O13      O        0.06556    0.06840    0.49190    1.000
    O14      O        0.07419    0.21460    0.71300    1.000
    H67      H        0.02390    0.13200    0.73800    1.000
    C67      C        0.13664    0.18020    0.56100    1.000
    C68      C        0.16435    0.26520    0.67290    1.000
    H68      H        0.15240    0.30440    0.76690    1.000
    C69      C        0.20863    0.29330    0.65000    1.000
    C70      C        0.22636    0.23620    0.51340    1.000
    C71      C        0.19870    0.15010    0.40030    1.000
    C72      C        0.15453    0.12370    0.42640    1.000
    H69      H        0.13610    0.06510    0.34970    1.000
    C73      C        0.23530    0.41570    0.74150    1.000
    H70      H        0.22420    0.43450    0.85070    1.000
    H71      H        0.23110    0.50070    0.67120    1.000
    C74      C        0.24290    0.35250    0.79550    1.000
    H72      H        0.25880    0.27590    0.86170    1.000
    H73      H        0.22680    0.40930    0.87210    1.000
    C75      C        0.21550    0.12360    0.22930    1.000
    H74      H        0.21140    0.20830    0.15870    1.000
    H75      H        0.19750    0.04780    0.16870    1.000
    C76      C        0.22340    0.05910    0.28290    1.000
    H76      H        0.20100    0.01840    0.19310    1.000
    H77      H        0.23940    0.98220    0.34820    1.000
    C77      C        0.08859    0.15270    0.59060    1.000
    O15      O        0.56556    0.56840    0.49190    1.000
    O16      O        0.57419    0.71460    0.71300    1.000
    H78      H        0.52390    0.63200    0.73800    1.000
    C78      C        0.63664    0.68020    0.56100    1.000
    C79      C        0.66435    0.76520    0.67290    1.000
    H79      H        0.65240    0.80440    0.76690    1.000
    C80      C        0.70863    0.79330    0.65000    1.000
    C81      C        0.72636    0.73620    0.51340    1.000
    C82      C        0.69870    0.65010    0.40030    1.000
    C83      C        0.65453    0.62370    0.42640    1.000
    H80      H        0.63610    0.56510    0.34970    1.000
    C84      C        0.73530    0.91570    0.74150    1.000
    H81      H        0.72420    0.93450    0.85070    1.000
    H82      H        0.73110    0.00070    0.67120    1.000
    C85      C        0.74290    0.85250    0.79550    1.000
    H83      H        0.75880    0.77590    0.86170    1.000
    H84      H        0.72680    0.90930    0.87210    1.000
    C86      C        0.71550    0.62360    0.22930    1.000
    H85      H        0.71140    0.70830    0.15870    1.000
    H86      H        0.69750    0.54780    0.16870    1.000
    C87      C        0.72340    0.55910    0.28290    1.000
    H87      H        0.70100    0.51840    0.19310    1.000
    H88      H        0.73940    0.48220    0.34820    1.000
    C88      C        0.58859    0.65270    0.59060    1.000
    Co1      Co       0.00000    0.00000    0.00000    1.000
    Co2      Co       0.50000    0.50000    0.00000    1.000
    Co3      Co       0.00000    0.00000    0.50000    1.000
    Co4      Co       0.50000    0.50000    0.50000    1.000
    O17      O        0.00000    0.91500    0.25000    1.000
    O18      O        0.50000    0.41500    0.25000    1.000
    O19      O        0.00000    0.08500    0.75000    1.000
    O20      O        0.50000    0.58500    0.75000    1.000
