# CIF file generated by openbabel 3.1.0, see https://openbabel.org
data_I
_chemical_name_common 'HEBTEP_clean'
_cell_length_a 7.336
_cell_length_b 11.316
_cell_length_c 17.653
_cell_angle_alpha 90
_cell_angle_beta 90.594
_cell_angle_gamma 90
_space_group_name_H-M_alt 'P 1'
_space_group_name_Hall 'P 1'
loop_
    _symmetry_equiv_pos_as_xyz
    x,y,z
loop_
    _atom_site_label
    _atom_site_type_symbol
    _atom_site_fract_x
    _atom_site_fract_y
    _atom_site_fract_z
    _atom_site_occupancy
    Zn1      Zn       0.50000    0.50000    0.00000    1.000
    Zn2      Zn       0.50000    0.00000    0.50000    1.000
    Zn3      Zn       0.00000    0.50000    0.00000    1.000
    Zn4      Zn       0.00000    0.00000    0.50000    1.000
    H1       H        0.51800    0.31200    0.79380    1.000
    H2       H        0.50300    0.20300    0.67770    1.000
    H3       H        0.96200    0.51030    0.80890    1.000
    H4       H        0.71200    0.52500    0.73180    1.000
    H5       H        0.68400    0.41080    0.61950    1.000
    H6       H        0.92800    0.29800    0.58200    1.000
    H7       H        0.48200    0.81200    0.70620    1.000
    H8       H        0.49700    0.70300    0.82230    1.000
    H9       H        0.03800    0.01030    0.69110    1.000
    H10      H        0.28800    0.02500    0.76820    1.000
    H11      H        0.31600    0.91080    0.88050    1.000
    H12      H        0.07200    0.79800    0.91800    1.000
    H13      H        0.48200    0.68800    0.20620    1.000
    H14      H        0.49700    0.79700    0.32230    1.000
    H15      H        0.03800    0.48970    0.19110    1.000
    H16      H        0.28800    0.47500    0.26820    1.000
    H17      H        0.31600    0.58920    0.38050    1.000
    H18      H        0.07200    0.70200    0.41800    1.000
    H19      H        0.51800    0.18800    0.29380    1.000
    H20      H        0.50300    0.29700    0.17770    1.000
    H21      H        0.96200    0.98970    0.30890    1.000
    H22      H        0.71200    0.97500    0.23180    1.000
    H23      H        0.68400    0.08920    0.11950    1.000
    H24      H        0.92800    0.20200    0.08200    1.000
    C1       C        0.26350    0.37749    0.78946    1.000
    C2       C        0.09220    0.32561    0.67341    1.000
    C3       C        0.10180    0.38851    0.74324    1.000
    C4       C        0.40050    0.25359    0.69394    1.000
    C5       C        0.23360    0.17064    0.58448    1.000
    C6       C        0.27370    0.42525    0.86928    1.000
    C7       C        0.24390    0.25433    0.65113    1.000
    C8       C        0.93280    0.33950    0.62739    1.000
    C9       C        0.40970    0.31554    0.76297    1.000
    C10      C        0.95470    0.46380    0.76326    1.000
    C11      C        0.79430    0.41090    0.64931    1.000
    C12      C        0.80500    0.47430    0.71739    1.000
    C13      C        0.73650    0.87749    0.71054    1.000
    C14      C        0.90780    0.82561    0.82659    1.000
    C15      C        0.89820    0.88851    0.75676    1.000
    C16      C        0.59950    0.75359    0.80606    1.000
    C17      C        0.76640    0.67064    0.91552    1.000
    C18      C        0.72630    0.92525    0.63072    1.000
    C19      C        0.75610    0.75433    0.84887    1.000
    C20      C        0.06720    0.83950    0.87261    1.000
    C21      C        0.59030    0.81554    0.73703    1.000
    C22      C        0.04530    0.96380    0.73674    1.000
    C23      C        0.20570    0.91090    0.85069    1.000
    C24      C        0.19500    0.97430    0.78261    1.000
    C25      C        0.73650    0.62251    0.21054    1.000
    C26      C        0.90780    0.67439    0.32659    1.000
    C27      C        0.89820    0.61149    0.25676    1.000
    C28      C        0.59950    0.74641    0.30606    1.000
    C29      C        0.76640    0.82936    0.41552    1.000
    C30      C        0.72630    0.57475    0.13072    1.000
    C31      C        0.75610    0.74567    0.34887    1.000
    C32      C        0.06720    0.66050    0.37261    1.000
    C33      C        0.59030    0.68446    0.23703    1.000
    C34      C        0.04530    0.53620    0.23674    1.000
    C35      C        0.20570    0.58910    0.35069    1.000
    C36      C        0.19500    0.52570    0.28261    1.000
    C37      C        0.26350    0.12251    0.28946    1.000
    C38      C        0.09220    0.17439    0.17341    1.000
    C39      C        0.10180    0.11149    0.24324    1.000
    C40      C        0.40050    0.24641    0.19394    1.000
    C41      C        0.23360    0.32936    0.08448    1.000
    C42      C        0.27370    0.07475    0.36928    1.000
    C43      C        0.24390    0.24567    0.15113    1.000
    C44      C        0.93280    0.16050    0.12739    1.000
    C45      C        0.40970    0.18446    0.26297    1.000
    C46      C        0.95470    0.03620    0.26326    1.000
    C47      C        0.79430    0.08910    0.14931    1.000
    C48      C        0.80500    0.02570    0.21739    1.000
    O1       O        0.13195    0.41778    0.90846    1.000
    O2       O        0.42596    0.46343    0.89198    1.000
    O3       O        0.37568    0.15389    0.54703    1.000
    O4       O        0.08289    0.12068    0.57435    1.000
    O5       O        0.86805    0.91778    0.59154    1.000
    O6       O        0.57404    0.96343    0.60802    1.000
    O7       O        0.62432    0.65389    0.95297    1.000
    O8       O        0.91711    0.62068    0.92565    1.000
    O9       O        0.86805    0.58222    0.09154    1.000
    O10      O        0.57404    0.53657    0.10802    1.000
    O11      O        0.62432    0.84611    0.45297    1.000
    O12      O        0.91711    0.87932    0.42565    1.000
    O13      O        0.13195    0.08222    0.40846    1.000
    O14      O        0.42596    0.03657    0.39198    1.000
    O15      O        0.37568    0.34611    0.04703    1.000
    O16      O        0.08289    0.37932    0.07435    1.000
