# CIF file generated by openbabel 3.1.0, see https://openbabel.org
data_I
_chemical_name_common 'image0'
_cell_length_a 30.748
_cell_length_b 7.12
_cell_length_c 15.932
_cell_angle_alpha 90
_cell_angle_beta 90
_cell_angle_gamma 90
_space_group_name_H-M_alt 'P 1'
_space_group_name_Hall 'P 1'
loop_
    _symmetry_equiv_pos_as_xyz
    x,y,z
loop_
    _atom_site_label
    _atom_site_type_symbol
    _atom_site_fract_x
    _atom_site_fract_y
    _atom_site_fract_z
    _atom_site_occupancy
    O1       O        0.20593    0.34840    0.09560    1.000
    C1       C        0.13890    0.65100    0.20940    1.000
    H1       H        0.13780    0.74770    0.16840    1.000
    C2       C        0.11340    0.66600    0.28110    1.000
    H2       H        0.09530    0.77260    0.28800    1.000
    C3       C        0.11380    0.52300    0.34550    1.000
    C4       C        0.14220    0.36500    0.32970    1.000
    H3       H        0.14400    0.26590    0.36940    1.000
    C5       C        0.16690    0.35800    0.25680    1.000
    H4       H        0.18540    0.25230    0.24800    1.000
    C6       C        0.14250    0.34300    0.22470    1.000
    H5       H        0.14620    0.22510    0.19790    1.000
    C7       C        0.11380    0.35900    0.29170    1.000
    H6       H        0.09370    0.26040    0.30240    1.000
    C8       C        0.13680    0.68300    0.31190    1.000
    H7       H        0.13630    0.79940    0.34120    1.000
    C9       C        0.15960    0.66800    0.23690    1.000
    H8       H        0.17150    0.77830    0.21250    1.000
    O2       O        0.70593    0.84840    0.09560    1.000
    C10      C        0.63890    0.15100    0.20940    1.000
    H9       H        0.63780    0.24770    0.16840    1.000
    C11      C        0.61340    0.16600    0.28110    1.000
    H10      H        0.59530    0.27260    0.28800    1.000
    C12      C        0.61380    0.02300    0.34550    1.000
    C13      C        0.64220    0.86500    0.32970    1.000
    H11      H        0.64400    0.76590    0.36940    1.000
    C14      C        0.66690    0.85800    0.25680    1.000
    H12      H        0.68540    0.75230    0.24800    1.000
    C15      C        0.64250    0.84300    0.22470    1.000
    H13      H        0.64620    0.72510    0.19790    1.000
    C16      C        0.61380    0.85900    0.29170    1.000
    H14      H        0.59370    0.76040    0.30240    1.000
    C17      C        0.63680    0.18300    0.31190    1.000
    H15      H        0.63630    0.29940    0.34120    1.000
    C18      C        0.65960    0.16800    0.23690    1.000
    H16      H        0.67150    0.27830    0.21250    1.000
    O3       O        0.79407    0.65160    0.09560    1.000
    C19      C        0.86110    0.34900    0.20940    1.000
    H17      H        0.86220    0.25230    0.16840    1.000
    C20      C        0.88660    0.33400    0.28110    1.000
    H18      H        0.90470    0.22740    0.28800    1.000
    C21      C        0.88620    0.47700    0.34550    1.000
    C22      C        0.85780    0.63500    0.32970    1.000
    H19      H        0.85600    0.73410    0.36940    1.000
    C23      C        0.83310    0.64200    0.25680    1.000
    H20      H        0.81460    0.74770    0.24800    1.000
    C24      C        0.85750    0.65700    0.22470    1.000
    H21      H        0.85380    0.77490    0.19790    1.000
    C25      C        0.88620    0.64100    0.29170    1.000
    H22      H        0.90630    0.73960    0.30240    1.000
    C26      C        0.86320    0.31700    0.31190    1.000
    H23      H        0.86370    0.20060    0.34120    1.000
    C27      C        0.84040    0.33200    0.23690    1.000
    H24      H        0.82850    0.22170    0.21250    1.000
    O4       O        0.29407    0.15160    0.09560    1.000
    C28      C        0.36110    0.84900    0.20940    1.000
    H25      H        0.36220    0.75230    0.16840    1.000
    C29      C        0.38660    0.83400    0.28110    1.000
    H26      H        0.40470    0.72740    0.28800    1.000
    C30      C        0.38620    0.97700    0.34550    1.000
    C31      C        0.35780    0.13500    0.32970    1.000
    H27      H        0.35600    0.23410    0.36940    1.000
    C32      C        0.33310    0.14200    0.25680    1.000
    H28      H        0.31460    0.24770    0.24800    1.000
    C33      C        0.35750    0.15700    0.22470    1.000
    H29      H        0.35380    0.27490    0.19790    1.000
    C34      C        0.38620    0.14100    0.29170    1.000
    H30      H        0.40630    0.23960    0.30240    1.000
    C35      C        0.36320    0.81700    0.31190    1.000
    H31      H        0.36370    0.70060    0.34120    1.000
    C36      C        0.34040    0.83200    0.23690    1.000
    H32      H        0.32850    0.72170    0.21250    1.000
    O5       O        0.79407    0.34840    0.90440    1.000
    C37      C        0.86110    0.65100    0.79060    1.000
    H33      H        0.86220    0.74770    0.83160    1.000
    C38      C        0.88660    0.66600    0.71890    1.000
    H34      H        0.90470    0.77260    0.71200    1.000
    C39      C        0.88620    0.52300    0.65450    1.000
    C40      C        0.85780    0.36500    0.67030    1.000
    H35      H        0.85600    0.26590    0.63060    1.000
    C41      C        0.83310    0.35800    0.74320    1.000
    H36      H        0.81460    0.25230    0.75200    1.000
    C42      C        0.85750    0.34300    0.77530    1.000
    H37      H        0.85380    0.22510    0.80210    1.000
    C43      C        0.88620    0.35900    0.70830    1.000
    H38      H        0.90630    0.26040    0.69760    1.000
    C44      C        0.86320    0.68300    0.68810    1.000
    H39      H        0.86370    0.79940    0.65880    1.000
    C45      C        0.84040    0.66800    0.76310    1.000
    H40      H        0.82850    0.77830    0.78750    1.000
    O6       O        0.29407    0.84840    0.90440    1.000
    C46      C        0.36110    0.15100    0.79060    1.000
    H41      H        0.36220    0.24770    0.83160    1.000
    C47      C        0.38660    0.16600    0.71890    1.000
    H42      H        0.40470    0.27260    0.71200    1.000
    C48      C        0.38620    0.02300    0.65450    1.000
    C49      C        0.35780    0.86500    0.67030    1.000
    H43      H        0.35600    0.76590    0.63060    1.000
    C50      C        0.33310    0.85800    0.74320    1.000
    H44      H        0.31460    0.75230    0.75200    1.000
    C51      C        0.35750    0.84300    0.77530    1.000
    H45      H        0.35380    0.72510    0.80210    1.000
    C52      C        0.38620    0.85900    0.70830    1.000
    H46      H        0.40630    0.76040    0.69760    1.000
    C53      C        0.36320    0.18300    0.68810    1.000
    H47      H        0.36370    0.29940    0.65880    1.000
    C54      C        0.34040    0.16800    0.76310    1.000
    H48      H        0.32850    0.27830    0.78750    1.000
    O7       O        0.20593    0.65160    0.90440    1.000
    C55      C        0.13890    0.34900    0.79060    1.000
    H49      H        0.13780    0.25230    0.83160    1.000
    C56      C        0.11340    0.33400    0.71890    1.000
    H50      H        0.09530    0.22740    0.71200    1.000
    C57      C        0.11380    0.47700    0.65450    1.000
    C58      C        0.14220    0.63500    0.67030    1.000
    H51      H        0.14400    0.73410    0.63060    1.000
    C59      C        0.16690    0.64200    0.74320    1.000
    H52      H        0.18540    0.74770    0.75200    1.000
    C60      C        0.14250    0.65700    0.77530    1.000
    H53      H        0.14620    0.77490    0.80210    1.000
    C61      C        0.11380    0.64100    0.70830    1.000
    H54      H        0.09370    0.73960    0.69760    1.000
    C62      C        0.13680    0.31700    0.68810    1.000
    H55      H        0.13630    0.20060    0.65880    1.000
    C63      C        0.15960    0.33200    0.76310    1.000
    H56      H        0.17150    0.22170    0.78750    1.000
    O8       O        0.70593    0.15160    0.90440    1.000
    C64      C        0.63890    0.84900    0.79060    1.000
    H57      H        0.63780    0.75230    0.83160    1.000
    C65      C        0.61340    0.83400    0.71890    1.000
    H58      H        0.59530    0.72740    0.71200    1.000
    C66      C        0.61380    0.97700    0.65450    1.000
    C67      C        0.64220    0.13500    0.67030    1.000
    H59      H        0.64400    0.23410    0.63060    1.000
    C68      C        0.66690    0.14200    0.74320    1.000
    H60      H        0.68540    0.24770    0.75200    1.000
    C69      C        0.64250    0.15700    0.77530    1.000
    H61      H        0.64620    0.27490    0.80210    1.000
    C70      C        0.61380    0.14100    0.70830    1.000
    H62      H        0.59370    0.23960    0.69760    1.000
    C71      C        0.63680    0.81700    0.68810    1.000
    H63      H        0.63630    0.70060    0.65880    1.000
    C72      C        0.65960    0.83200    0.76310    1.000
    H64      H        0.67150    0.72170    0.78750    1.000
    O9       O        0.79407    0.65160    0.90440    1.000
    C73      C        0.86110    0.34900    0.79060    1.000
    H65      H        0.86220    0.25230    0.83160    1.000
    C74      C        0.88660    0.33400    0.71890    1.000
    H66      H        0.90470    0.22740    0.71200    1.000
    C75      C        0.88620    0.47700    0.65450    1.000
    C76      C        0.85780    0.63500    0.67030    1.000
    H67      H        0.85600    0.73410    0.63060    1.000
    C77      C        0.83310    0.64200    0.74320    1.000
    H68      H        0.81460    0.74770    0.75200    1.000
    C78      C        0.85750    0.65700    0.77530    1.000
    H69      H        0.85380    0.77490    0.80210    1.000
    C79      C        0.88620    0.64100    0.70830    1.000
    H70      H        0.90630    0.73960    0.69760    1.000
    C80      C        0.86320    0.31700    0.68810    1.000
    H71      H        0.86370    0.20060    0.65880    1.000
    C81      C        0.84040    0.33200    0.76310    1.000
    H72      H        0.82850    0.22170    0.78750    1.000
    O10      O        0.29407    0.15160    0.90440    1.000
    C82      C        0.36110    0.84900    0.79060    1.000
    H73      H        0.36220    0.75230    0.83160    1.000
    C83      C        0.38660    0.83400    0.71890    1.000
    H74      H        0.40470    0.72740    0.71200    1.000
    C84      C        0.38620    0.97700    0.65450    1.000
    C85      C        0.35780    0.13500    0.67030    1.000
    H75      H        0.35600    0.23410    0.63060    1.000
    C86      C        0.33310    0.14200    0.74320    1.000
    H76      H        0.31460    0.24770    0.75200    1.000
    C87      C        0.35750    0.15700    0.77530    1.000
    H77      H        0.35380    0.27490    0.80210    1.000
    C88      C        0.38620    0.14100    0.70830    1.000
    H78      H        0.40630    0.23960    0.69760    1.000
    C89      C        0.36320    0.81700    0.68810    1.000
    H79      H        0.36370    0.70060    0.65880    1.000
    C90      C        0.34040    0.83200    0.76310    1.000
    H80      H        0.32850    0.72170    0.78750    1.000
    O11      O        0.20593    0.34840    0.90440    1.000
    C91      C        0.13890    0.65100    0.79060    1.000
    H81      H        0.13780    0.74770    0.83160    1.000
    C92      C        0.11340    0.66600    0.71890    1.000
    H82      H        0.09530    0.77260    0.71200    1.000
    C93      C        0.11380    0.52300    0.65450    1.000
    C94      C        0.14220    0.36500    0.67030    1.000
    H83      H        0.14400    0.26590    0.63060    1.000
    C95      C        0.16690    0.35800    0.74320    1.000
    H84      H        0.18540    0.25230    0.75200    1.000
    C96      C        0.14250    0.34300    0.77530    1.000
    H85      H        0.14620    0.22510    0.80210    1.000
    C97      C        0.11380    0.35900    0.70830    1.000
    H86      H        0.09370    0.26040    0.69760    1.000
    C98      C        0.13680    0.68300    0.68810    1.000
    H87      H        0.13630    0.79940    0.65880    1.000
    C99      C        0.15960    0.66800    0.76310    1.000
    H88      H        0.17150    0.77830    0.78750    1.000
    O12      O        0.70593    0.84840    0.90440    1.000
    C100     C        0.63890    0.15100    0.79060    1.000
    H89      H        0.63780    0.24770    0.83160    1.000
    C101     C        0.61340    0.16600    0.71890    1.000
    H90      H        0.59530    0.27260    0.71200    1.000
    C102     C        0.61380    0.02300    0.65450    1.000
    C103     C        0.64220    0.86500    0.67030    1.000
    H91      H        0.64400    0.76590    0.63060    1.000
    C104     C        0.66690    0.85800    0.74320    1.000
    H92      H        0.68540    0.75230    0.75200    1.000
    C105     C        0.64250    0.84300    0.77530    1.000
    H93      H        0.64620    0.72510    0.80210    1.000
    C106     C        0.61380    0.85900    0.70830    1.000
    H94      H        0.59370    0.76040    0.69760    1.000
    C107     C        0.63680    0.18300    0.68810    1.000
    H95      H        0.63630    0.29940    0.65880    1.000
    C108     C        0.65960    0.16800    0.76310    1.000
    H96      H        0.67150    0.27830    0.78750    1.000
    O13      O        0.20593    0.65160    0.09560    1.000
    C109     C        0.13890    0.34900    0.20940    1.000
    H97      H        0.13780    0.25230    0.16840    1.000
    C110     C        0.11340    0.33400    0.28110    1.000
    H98      H        0.09530    0.22740    0.28800    1.000
    C111     C        0.11380    0.47700    0.34550    1.000
    C112     C        0.14220    0.63500    0.32970    1.000
    H99      H        0.14400    0.73410    0.36940    1.000
    C113     C        0.16690    0.64200    0.25680    1.000
    H100     H        0.18540    0.74770    0.24800    1.000
    C114     C        0.14250    0.65700    0.22470    1.000
    H101     H        0.14620    0.77490    0.19790    1.000
    C115     C        0.11380    0.64100    0.29170    1.000
    H102     H        0.09370    0.73960    0.30240    1.000
    C116     C        0.13680    0.31700    0.31190    1.000
    H103     H        0.13630    0.20060    0.34120    1.000
    C117     C        0.15960    0.33200    0.23690    1.000
    H104     H        0.17150    0.22170    0.21250    1.000
    O14      O        0.70593    0.15160    0.09560    1.000
    C118     C        0.63890    0.84900    0.20940    1.000
    H105     H        0.63780    0.75230    0.16840    1.000
    C119     C        0.61340    0.83400    0.28110    1.000
    H106     H        0.59530    0.72740    0.28800    1.000
    C120     C        0.61380    0.97700    0.34550    1.000
    C121     C        0.64220    0.13500    0.32970    1.000
    H107     H        0.64400    0.23410    0.36940    1.000
    C122     C        0.66690    0.14200    0.25680    1.000
    H108     H        0.68540    0.24770    0.24800    1.000
    C123     C        0.64250    0.15700    0.22470    1.000
    H109     H        0.64620    0.27490    0.19790    1.000
    C124     C        0.61380    0.14100    0.29170    1.000
    H110     H        0.59370    0.23960    0.30240    1.000
    C125     C        0.63680    0.81700    0.31190    1.000
    H111     H        0.63630    0.70060    0.34120    1.000
    C126     C        0.65960    0.83200    0.23690    1.000
    H112     H        0.67150    0.72170    0.21250    1.000
    O15      O        0.79407    0.34840    0.09560    1.000
    C127     C        0.86110    0.65100    0.20940    1.000
    H113     H        0.86220    0.74770    0.16840    1.000
    C128     C        0.88660    0.66600    0.28110    1.000
    H114     H        0.90470    0.77260    0.28800    1.000
    C129     C        0.88620    0.52300    0.34550    1.000
    C130     C        0.85780    0.36500    0.32970    1.000
    H115     H        0.85600    0.26590    0.36940    1.000
    C131     C        0.83310    0.35800    0.25680    1.000
    H116     H        0.81460    0.25230    0.24800    1.000
    C132     C        0.85750    0.34300    0.22470    1.000
    H117     H        0.85380    0.22510    0.19790    1.000
    C133     C        0.88620    0.35900    0.29170    1.000
    H118     H        0.90630    0.26040    0.30240    1.000
    C134     C        0.86320    0.68300    0.31190    1.000
    H119     H        0.86370    0.79940    0.34120    1.000
    C135     C        0.84040    0.66800    0.23690    1.000
    H120     H        0.82850    0.77830    0.21250    1.000
    O16      O        0.29407    0.84840    0.09560    1.000
    C136     C        0.36110    0.15100    0.20940    1.000
    H121     H        0.36220    0.24770    0.16840    1.000
    C137     C        0.38660    0.16600    0.28110    1.000
    H122     H        0.40470    0.27260    0.28800    1.000
    C138     C        0.38620    0.02300    0.34550    1.000
    C139     C        0.35780    0.86500    0.32970    1.000
    H123     H        0.35600    0.76590    0.36940    1.000
    C140     C        0.33310    0.85800    0.25680    1.000
    H124     H        0.31460    0.75230    0.24800    1.000
    C141     C        0.35750    0.84300    0.22470    1.000
    H125     H        0.35380    0.72510    0.19790    1.000
    C142     C        0.38620    0.85900    0.29170    1.000
    H126     H        0.40630    0.76040    0.30240    1.000
    C143     C        0.36320    0.18300    0.31190    1.000
    H127     H        0.36370    0.29940    0.34120    1.000
    C144     C        0.34040    0.16800    0.23690    1.000
    H128     H        0.32850    0.27830    0.21250    1.000
    In1      In       0.25000    0.25000    0.00000    1.000
    In2      In       0.75000    0.75000    0.00000    1.000
    In3      In       0.75000    0.25000    0.00000    1.000
    In4      In       0.25000    0.75000    0.00000    1.000
    O17      O        0.28370    0.50000    0.00000    1.000
    H129     H        0.31560    0.50000    0.00000    1.000
    O18      O        0.78370    0.00000    0.00000    1.000
    H130     H        0.81560    0.00000    0.00000    1.000
    O19      O        0.71630    0.50000    0.00000    1.000
    H131     H        0.68440    0.50000    0.00000    1.000
    O20      O        0.21630    0.00000    0.00000    1.000
    H132     H        0.18440    0.00000    0.00000    1.000
    C145     C        0.19440    0.50000    0.12230    1.000
    C146     C        0.02490    0.50000    0.33930    1.000
    H133     H        0.04160    0.50000    0.28920    1.000
    C147     C        0.09010    0.50000    0.42570    1.000
    C148     C        0.04410    0.50000    0.42130    1.000
    C149     C        0.16580    0.50000    0.19630    1.000
    C150     C        0.69440    0.00000    0.12230    1.000
    C151     C        0.52490    0.00000    0.33930    1.000
    H134     H        0.54160    0.00000    0.28920    1.000
    C152     C        0.59010    0.00000    0.42570    1.000
    C153     C        0.54410    0.00000    0.42130    1.000
    C154     C        0.66580    0.00000    0.19630    1.000
    C155     C        0.80560    0.50000    0.12230    1.000
    C156     C        0.97510    0.50000    0.33930    1.000
    H135     H        0.95840    0.50000    0.28920    1.000
    C157     C        0.90990    0.50000    0.42570    1.000
    C158     C        0.95590    0.50000    0.42130    1.000
    C159     C        0.83420    0.50000    0.19630    1.000
    C160     C        0.30560    0.00000    0.12230    1.000
    C161     C        0.47510    0.00000    0.33930    1.000
    H136     H        0.45840    0.00000    0.28920    1.000
    C162     C        0.40990    0.00000    0.42570    1.000
    C163     C        0.45590    0.00000    0.42130    1.000
    C164     C        0.33420    0.00000    0.19630    1.000
    C165     C        0.80560    0.50000    0.87770    1.000
    C166     C        0.97510    0.50000    0.66070    1.000
    H137     H        0.95840    0.50000    0.71080    1.000
    C167     C        0.90990    0.50000    0.57430    1.000
    C168     C        0.95590    0.50000    0.57870    1.000
    C169     C        0.83420    0.50000    0.80370    1.000
    C170     C        0.30560    0.00000    0.87770    1.000
    C171     C        0.47510    0.00000    0.66070    1.000
    H138     H        0.45840    0.00000    0.71080    1.000
    C172     C        0.40990    0.00000    0.57430    1.000
    C173     C        0.45590    0.00000    0.57870    1.000
    C174     C        0.33420    0.00000    0.80370    1.000
    C175     C        0.19440    0.50000    0.87770    1.000
    C176     C        0.02490    0.50000    0.66070    1.000
    H139     H        0.04160    0.50000    0.71080    1.000
    C177     C        0.09010    0.50000    0.57430    1.000
    C178     C        0.04410    0.50000    0.57870    1.000
    C179     C        0.16580    0.50000    0.80370    1.000
    C180     C        0.69440    0.00000    0.87770    1.000
    C181     C        0.52490    0.00000    0.66070    1.000
    H140     H        0.54160    0.00000    0.71080    1.000
    C182     C        0.59010    0.00000    0.57430    1.000
    C183     C        0.54410    0.00000    0.57870    1.000
    C184     C        0.66580    0.00000    0.80370    1.000
    C185     C        0.02240    0.50000    0.50000    1.000
    C186     C        0.11390    0.50000    0.50000    1.000
    H141     H        0.14480    0.50000    0.50000    1.000
    C187     C        0.52240    0.00000    0.50000    1.000
    C188     C        0.61390    0.00000    0.50000    1.000
    H142     H        0.64480    0.00000    0.50000    1.000
    C189     C        0.97760    0.50000    0.50000    1.000
    C190     C        0.88610    0.50000    0.50000    1.000
    H143     H        0.85520    0.50000    0.50000    1.000
    C191     C        0.47760    0.00000    0.50000    1.000
    C192     C        0.38610    0.00000    0.50000    1.000
    H144     H        0.35520    0.00000    0.50000    1.000
