# CIF file generated by openbabel 3.1.0, see https://openbabel.org
data_I
_chemical_name_common 'image0'
_cell_length_a 10.925
_cell_length_b 10.925
_cell_length_c 20.461
_cell_angle_alpha 90
_cell_angle_beta 90
_cell_angle_gamma 90
_space_group_name_H-M_alt 'P 1'
_space_group_name_Hall 'P 1'
loop_
    _symmetry_equiv_pos_as_xyz
    x,y,z
loop_
    _atom_site_label
    _atom_site_type_symbol
    _atom_site_fract_x
    _atom_site_fract_y
    _atom_site_fract_z
    _atom_site_occupancy
    Gd1      Gd       0.15357    0.41139    0.18504    1.000
    O1       O        0.09960    0.24700    0.11460    1.000
    O2       O        0.31970    0.54030    0.21780    1.000
    O3       O        0.10880    0.44390    0.30014    1.000
    O4       O        0.14590    0.49800    0.07759    1.000
    C1       C        0.06600    0.49970    0.03696    1.000
    Gd2      Gd       0.65357    0.91139    0.68504    1.000
    O5       O        0.59960    0.74700    0.61460    1.000
    O6       O        0.81970    0.04030    0.71780    1.000
    O7       O        0.60880    0.94390    0.80014    1.000
    O8       O        0.64590    0.99800    0.57759    1.000
    C2       C        0.56600    0.99970    0.53696    1.000
    Gd3      Gd       0.84643    0.58861    0.18504    1.000
    O9       O        0.90040    0.75300    0.11460    1.000
    O10      O        0.68030    0.45970    0.21780    1.000
    O11      O        0.89120    0.55610    0.30014    1.000
    O12      O        0.85410    0.50200    0.07759    1.000
    C3       C        0.93400    0.50030    0.03696    1.000
    Gd4      Gd       0.34643    0.08861    0.68504    1.000
    O13      O        0.40040    0.25300    0.61460    1.000
    O14      O        0.18030    0.95970    0.71780    1.000
    O15      O        0.39120    0.05610    0.80014    1.000
    O16      O        0.35410    0.00200    0.57759    1.000
    C4       C        0.43400    0.00030    0.53696    1.000
    Gd5      Gd       0.41139    0.84643    0.81496    1.000
    O17      O        0.24700    0.90040    0.88540    1.000
    O18      O        0.54030    0.68030    0.78220    1.000
    O19      O        0.44390    0.89120    0.69986    1.000
    O20      O        0.49800    0.85410    0.92241    1.000
    C5       C        0.49970    0.93400    0.96304    1.000
    Gd6      Gd       0.91139    0.34643    0.31496    1.000
    O21      O        0.74700    0.40040    0.38540    1.000
    O22      O        0.04030    0.18030    0.28220    1.000
    O23      O        0.94390    0.39120    0.19986    1.000
    O24      O        0.99800    0.35410    0.42241    1.000
    C6       C        0.99970    0.43400    0.46304    1.000
    Gd7      Gd       0.58861    0.15357    0.81496    1.000
    O25      O        0.75300    0.09960    0.88540    1.000
    O26      O        0.45970    0.31970    0.78220    1.000
    O27      O        0.55610    0.10880    0.69986    1.000
    O28      O        0.50200    0.14590    0.92241    1.000
    C7       C        0.50030    0.06600    0.96304    1.000
    Gd8      Gd       0.08861    0.65357    0.31496    1.000
    O29      O        0.25300    0.59960    0.38540    1.000
    O30      O        0.95970    0.81970    0.28220    1.000
    O31      O        0.05610    0.60880    0.19986    1.000
    O32      O        0.00200    0.64590    0.42241    1.000
    C8       C        0.00030    0.56600    0.46304    1.000
    Gd9      Gd       0.84643    0.41139    0.81496    1.000
    O33      O        0.90040    0.24700    0.88540    1.000
    O34      O        0.68030    0.54030    0.78220    1.000
    O35      O        0.89120    0.44390    0.69986    1.000
    O36      O        0.85410    0.49800    0.92241    1.000
    C9       C        0.93400    0.49970    0.96304    1.000
    Gd10     Gd       0.34643    0.91139    0.31496    1.000
    O37      O        0.40040    0.74700    0.38540    1.000
    O38      O        0.18030    0.04030    0.28220    1.000
    O39      O        0.39120    0.94390    0.19986    1.000
    O40      O        0.35410    0.99800    0.42241    1.000
    C10      C        0.43400    0.99970    0.46304    1.000
    Gd11     Gd       0.15357    0.58861    0.81496    1.000
    O41      O        0.09960    0.75300    0.88540    1.000
    O42      O        0.31970    0.45970    0.78220    1.000
    O43      O        0.10880    0.55610    0.69986    1.000
    O44      O        0.14590    0.50200    0.92241    1.000
    C11      C        0.06600    0.50030    0.96304    1.000
    Gd12     Gd       0.65357    0.08861    0.31496    1.000
    O45      O        0.59960    0.25300    0.38540    1.000
    O46      O        0.81970    0.95970    0.28220    1.000
    O47      O        0.60880    0.05610    0.19986    1.000
    O48      O        0.64590    0.00200    0.42241    1.000
    C12      C        0.56600    0.00030    0.46304    1.000
    Gd13     Gd       0.58861    0.84643    0.18504    1.000
    O49      O        0.75300    0.90040    0.11460    1.000
    O50      O        0.45970    0.68030    0.21780    1.000
    O51      O        0.55610    0.89120    0.30014    1.000
    O52      O        0.50200    0.85410    0.07759    1.000
    C13      C        0.50030    0.93400    0.03696    1.000
    Gd14     Gd       0.08861    0.34643    0.68504    1.000
    O53      O        0.25300    0.40040    0.61460    1.000
    O54      O        0.95970    0.18030    0.71780    1.000
    O55      O        0.05610    0.39120    0.80014    1.000
    O56      O        0.00200    0.35410    0.57759    1.000
    C14      C        0.00030    0.43400    0.53696    1.000
    Gd15     Gd       0.41139    0.15357    0.18504    1.000
    O57      O        0.24700    0.09960    0.11460    1.000
    O58      O        0.54030    0.31970    0.21780    1.000
    O59      O        0.44390    0.10880    0.30014    1.000
    O60      O        0.49800    0.14590    0.07759    1.000
    C15      C        0.49970    0.06600    0.03696    1.000
    Gd16     Gd       0.91139    0.65357    0.68504    1.000
    O61      O        0.74700    0.59960    0.61460    1.000
    O62      O        0.04030    0.81970    0.71780    1.000
    O63      O        0.94390    0.60880    0.80014    1.000
    O64      O        0.99800    0.64590    0.57759    1.000
    C16      C        0.99970    0.56600    0.53696    1.000
    Gd17     Gd       0.50000    0.50000    0.15522    1.000
    Gd18     Gd       0.00000    0.00000    0.65522    1.000
    Gd19     Gd       0.50000    0.50000    0.84478    1.000
    Gd20     Gd       0.00000    0.00000    0.34478    1.000
    O65      O        0.27460    0.72540    0.26040    1.000
    C17      C        0.34530    0.65470    0.22820    1.000
    O66      O        0.77460    0.22540    0.76040    1.000
    C18      C        0.84530    0.15470    0.72820    1.000
    O67      O        0.72540    0.27460    0.26040    1.000
    C19      C        0.65470    0.34530    0.22820    1.000
    O68      O        0.22540    0.77460    0.76040    1.000
    C20      C        0.15470    0.84530    0.72820    1.000
    O69      O        0.72540    0.72540    0.73960    1.000
    C21      C        0.65470    0.65470    0.77180    1.000
    O70      O        0.22540    0.22540    0.23960    1.000
    C22      C        0.15470    0.15470    0.27180    1.000
    O71      O        0.27460    0.27460    0.73960    1.000
    C23      C        0.34530    0.34530    0.77180    1.000
    O72      O        0.77460    0.77460    0.23960    1.000
    C24      C        0.84530    0.84530    0.27180    1.000
    O73      O        0.34550    0.34550    0.13500    1.000
    C25      C        0.14670    0.14670    0.08710    1.000
    H1       H        0.11110    0.11110    0.05040    1.000
    O74      O        0.84550    0.84550    0.63500    1.000
    C26      C        0.64670    0.64670    0.58710    1.000
    H2       H        0.61110    0.61110    0.55040    1.000
    O75      O        0.65450    0.65450    0.13500    1.000
    C27      C        0.85330    0.85330    0.08710    1.000
    H3       H        0.88890    0.88890    0.05040    1.000
    O76      O        0.15450    0.15450    0.63500    1.000
    C28      C        0.35330    0.35330    0.58710    1.000
    H4       H        0.38890    0.38890    0.55040    1.000
    O77      O        0.34550    0.65450    0.86500    1.000
    C29      C        0.14670    0.85330    0.91290    1.000
    H5       H        0.11110    0.88890    0.94960    1.000
    O78      O        0.84550    0.15450    0.36500    1.000
    C30      C        0.64670    0.35330    0.41290    1.000
    H6       H        0.61110    0.38890    0.44960    1.000
    O79      O        0.65450    0.34550    0.86500    1.000
    C31      C        0.85330    0.14670    0.91290    1.000
    H7       H        0.88890    0.11110    0.94960    1.000
    O80      O        0.15450    0.84550    0.36500    1.000
    C32      C        0.35330    0.64670    0.41290    1.000
    H8       H        0.38890    0.61110    0.44960    1.000
