# CIF file generated by openbabel 3.1.0, see https://openbabel.org
data_I
_chemical_name_common 'image0'
_cell_length_a 27.5447
_cell_length_b 32.731
_cell_length_c 44.208
_cell_angle_alpha 90
_cell_angle_beta 90
_cell_angle_gamma 90
_space_group_name_H-M_alt 'P 1'
_space_group_name_Hall 'P 1'
loop_
    _symmetry_equiv_pos_as_xyz
    x,y,z
loop_
    _atom_site_label
    _atom_site_type_symbol
    _atom_site_fract_x
    _atom_site_fract_y
    _atom_site_fract_z
    _atom_site_occupancy
    Zn1      Zn       0.03068    0.19288    0.10933    1.000
    N1       N        0.02104    0.19666    0.06311    1.000
    N2       N        0.97556    0.15070    0.11082    1.000
    N3       N        0.02586    0.19898    0.15586    1.000
    N4       N        0.07063    0.24599    0.10826    1.000
    C1       C        0.04727    0.22098    0.04382    1.000
    C2       C        0.03587    0.20985    0.01309    1.000
    H1       H        0.04860    0.22230    0.99540    1.000
    C3       C        0.00465    0.17930    0.01386    1.000
    H2       H        0.99120    0.16540    0.99690    1.000
    C4       C        0.99490    0.17099    0.04531    1.000
    C5       C        0.96369    0.13997    0.05610    1.000
    C6       C        0.95429    0.13070    0.08660    1.000
    C7       C        0.92274    0.09932    0.09696    1.000
    H3       H        0.90370    0.08140    0.08490    1.000
    C8       C        0.92530    0.10020    0.12775    1.000
    H4       H        0.90820    0.08280    0.14130    1.000
    C9       C        0.95785    0.13154    0.13589    1.000
    C10      C        0.97090    0.14168    0.16571    1.000
    C11      C        0.00179    0.17384    0.17483    1.000
    C12      C        0.01261    0.18451    0.20548    1.000
    H5       H        0.00030    0.17150    0.22310    1.000
    C13      C        0.04331    0.21626    0.20483    1.000
    H6       H        0.05630    0.23010    0.22190    1.000
    C14      C        0.05294    0.22550    0.17347    1.000
    C15      C        0.08372    0.25585    0.16266    1.000
    C16      C        0.09288    0.26556    0.13199    1.000
    C17      C        0.12543    0.29550    0.12134    1.000
    H7       H        0.14470    0.31320    0.13350    1.000
    C18      C        0.12444    0.29465    0.09097    1.000
    H8       H        0.14270    0.31150    0.07770    1.000
    C19      C        0.09097    0.26394    0.08255    1.000
    C20      C        0.07935    0.25181    0.05281    1.000
    C21      C        0.94054    0.11496    0.03385    1.000
    C22      C        0.92214    0.09518    0.01470    1.000
    C23      C        0.89962    0.07253    0.99060    1.000
    C24      C        0.91038    0.08157    0.96033    1.000
    H9       H        0.93390    0.10180    0.95550    1.000
    C25      C        0.88659    0.06090    0.93764    1.000
    H10      H        0.89290    0.06800    0.91720    1.000
    C26      C        0.85426    0.03065    0.94374    1.000
    C27      C        0.84442    0.02047    0.97367    1.000
    H11      H        0.82220    0.99900    0.97790    1.000
    C28      C        0.86587    0.04060    0.99693    1.000
    H12      H        0.85850    0.03350    0.01730    1.000
    C29      C        0.82814    0.00820    0.91877    1.000
    O1       O        0.83458    0.02217    0.89229    1.000
    O2       O        0.80177    0.97880    0.92563    1.000
    C30      C        0.95098    0.11689    0.18935    1.000
    C31      C        0.93564    0.09604    0.20901    1.000
    C32      C        0.91479    0.07179    0.23261    1.000
    C33      C        0.87980    0.04435    0.22682    1.000
    H13      H        0.87040    0.03950    0.20650    1.000
    C34      C        0.85730    0.02292    0.24991    1.000
    H14      H        0.83200    0.00410    0.24550    1.000
    C35      C        0.87220    0.02930    0.27978    1.000
    C36      C        0.90950    0.05583    0.28534    1.000
    H15      H        0.92050    0.05940    0.30550    1.000
    C37      C        0.93132    0.07727    0.26257    1.000
    H16      H        0.95720    0.09560    0.26680    1.000
    C38      C        0.84597    0.00908    0.30565    1.000
    O3       O        0.80585    0.99057    0.30083    1.000
    O4       O        0.86343    0.01194    0.33142    1.000
    C39      C        0.10994    0.28040    0.18490    1.000
    C40      C        0.13205    0.30070    0.20245    1.000
    C41      C        0.15714    0.32681    0.22249    1.000
    C42      C        0.14620    0.32883    0.25219    1.000
    H17      H        0.12150    0.31160    0.26010    1.000
    C43      C        0.17030    0.35565    0.27156    1.000
    H18      H        0.16210    0.35630    0.29240    1.000
    C44      C        0.20520    0.38060    0.26086    1.000
    C45      C        0.21530    0.37966    0.22963    1.000
    H19      H        0.23830    0.39820    0.22130    1.000
    C46      C        0.19270    0.35270    0.21142    1.000
    H20      H        0.20130    0.35140    0.19060    1.000
    C47      C        0.23020    0.41041    0.28157    1.000
    O5       O        0.21954    0.41101    0.30845    1.000
    O6       O        0.25816    0.43822    0.26712    1.000
    H21      H        0.27620    0.45000    0.27970    1.000
    C48      C        0.10347    0.27327    0.02913    1.000
    C49      C        0.12319    0.29095    0.00873    1.000
    C50      C        0.14509    0.31267    0.98443    1.000
    C51      C        0.17732    0.34287    0.99013    1.000
    H22      H        0.18590    0.34910    0.01040    1.000
    C52      C        0.19781    0.36470    0.96678    1.000
    H23      H        0.22000    0.38620    0.97100    1.000
    C53      C        0.18607    0.35535    0.93747    1.000
    C54      C        0.15420    0.32482    0.93144    1.000
    H24      H        0.14620    0.31850    0.91110    1.000
    C55      C        0.13352    0.30317    0.95451    1.000
    H25      H        0.11130    0.28170    0.95020    1.000
    C56      C        0.20836    0.38018    0.91217    1.000
    O7       O        0.23386    0.41015    0.92075    1.000
    O8       O        0.20072    0.37012    0.88545    1.000
    N5       N        0.09138    0.15003    0.10887    1.000
    N6       N        0.16353    0.09977    0.10708    1.000
    Zn2      Zn       0.77891    0.93928    0.89590    1.000
    Zn3      Zn       0.80411    0.01821    0.85104    1.000
    O9       O        0.76523    0.96140    0.85657    1.000
    C57      C        0.11160    0.14688    0.07781    1.000
    C58      C        0.07970    0.11160    0.12660    1.000
    C59      C        0.13030    0.16336    0.12885    1.000
    C60      C        0.14840    0.10910    0.07646    1.000
    C61      C        0.17990    0.13810    0.12419    1.000
    C62      C        0.12260    0.08280    0.12560    1.000
    C63      C        0.11690    0.07590    0.10320    1.000
    C64      C        0.16990    0.12900    0.08000    1.000
    C65      C        0.16230    0.11980    0.13570    1.000
    C66      C        0.07270    0.10570    0.11100    1.000
    Zn4      Zn       0.53068    0.69288    0.10933    1.000
    N7       N        0.52104    0.69666    0.06311    1.000
    N8       N        0.47556    0.65070    0.11082    1.000
    N9       N        0.52586    0.69898    0.15586    1.000
    N10      N        0.57063    0.74599    0.10826    1.000
    C67      C        0.54727    0.72098    0.04382    1.000
    C68      C        0.53587    0.70985    0.01309    1.000
    H26      H        0.54860    0.72230    0.99540    1.000
    C69      C        0.50465    0.67930    0.01386    1.000
    H27      H        0.49120    0.66540    0.99690    1.000
    C70      C        0.49490    0.67099    0.04531    1.000
    C71      C        0.46369    0.63997    0.05610    1.000
    C72      C        0.45429    0.63070    0.08660    1.000
    C73      C        0.42274    0.59932    0.09696    1.000
    H28      H        0.40370    0.58140    0.08490    1.000
    C74      C        0.42530    0.60020    0.12775    1.000
    H29      H        0.40820    0.58280    0.14130    1.000
    C75      C        0.45785    0.63154    0.13589    1.000
    C76      C        0.47090    0.64168    0.16571    1.000
    C77      C        0.50179    0.67384    0.17483    1.000
    C78      C        0.51261    0.68451    0.20548    1.000
    H30      H        0.50030    0.67150    0.22310    1.000
    C79      C        0.54331    0.71626    0.20483    1.000
    H31      H        0.55630    0.73010    0.22190    1.000
    C80      C        0.55294    0.72550    0.17347    1.000
    C81      C        0.58372    0.75585    0.16266    1.000
    C82      C        0.59288    0.76556    0.13199    1.000
    C83      C        0.62543    0.79550    0.12134    1.000
    H32      H        0.64470    0.81320    0.13350    1.000
    C84      C        0.62444    0.79465    0.09097    1.000
    H33      H        0.64270    0.81150    0.07770    1.000
    C85      C        0.59097    0.76394    0.08255    1.000
    C86      C        0.57935    0.75181    0.05281    1.000
    C87      C        0.44054    0.61496    0.03385    1.000
    C88      C        0.42214    0.59518    0.01470    1.000
    C89      C        0.39962    0.57253    0.99060    1.000
    C90      C        0.41038    0.58157    0.96033    1.000
    H34      H        0.43390    0.60180    0.95550    1.000
    C91      C        0.38659    0.56090    0.93764    1.000
    H35      H        0.39290    0.56800    0.91720    1.000
    C92      C        0.35426    0.53065    0.94374    1.000
    C93      C        0.34442    0.52047    0.97367    1.000
    H36      H        0.32220    0.49900    0.97790    1.000
    C94      C        0.36587    0.54060    0.99693    1.000
    H37      H        0.35850    0.53350    0.01730    1.000
    C95      C        0.32814    0.50820    0.91877    1.000
    O10      O        0.33458    0.52217    0.89229    1.000
    O11      O        0.30177    0.47880    0.92563    1.000
    C96      C        0.45098    0.61689    0.18935    1.000
    C97      C        0.43564    0.59604    0.20901    1.000
    C98      C        0.41479    0.57179    0.23261    1.000
    C99      C        0.37980    0.54435    0.22682    1.000
    H38      H        0.37040    0.53950    0.20650    1.000
    C100     C        0.35730    0.52292    0.24991    1.000
    H39      H        0.33200    0.50410    0.24550    1.000
    C101     C        0.37220    0.52930    0.27978    1.000
    C102     C        0.40950    0.55583    0.28534    1.000
    H40      H        0.42050    0.55940    0.30550    1.000
    C103     C        0.43132    0.57727    0.26257    1.000
    H41      H        0.45720    0.59560    0.26680    1.000
    C104     C        0.34597    0.50908    0.30565    1.000
    O12      O        0.30585    0.49057    0.30083    1.000
    O13      O        0.36343    0.51194    0.33142    1.000
    C105     C        0.60994    0.78040    0.18490    1.000
    C106     C        0.63205    0.80070    0.20245    1.000
    C107     C        0.65714    0.82681    0.22249    1.000
    C108     C        0.64620    0.82883    0.25219    1.000
    H42      H        0.62150    0.81160    0.26010    1.000
    C109     C        0.67030    0.85565    0.27156    1.000
    H43      H        0.66210    0.85630    0.29240    1.000
    C110     C        0.70520    0.88060    0.26086    1.000
    C111     C        0.71530    0.87966    0.22963    1.000
    H44      H        0.73830    0.89820    0.22130    1.000
    C112     C        0.69270    0.85270    0.21142    1.000
    H45      H        0.70130    0.85140    0.19060    1.000
    C113     C        0.73020    0.91041    0.28157    1.000
    O14      O        0.71954    0.91101    0.30845    1.000
    O15      O        0.75816    0.93822    0.26712    1.000
    H46      H        0.77620    0.95000    0.27970    1.000
    C114     C        0.60347    0.77327    0.02913    1.000
    C115     C        0.62319    0.79095    0.00873    1.000
    C116     C        0.64509    0.81267    0.98443    1.000
    C117     C        0.67732    0.84287    0.99013    1.000
    H47      H        0.68590    0.84910    0.01040    1.000
    C118     C        0.69781    0.86470    0.96678    1.000
    H48      H        0.72000    0.88620    0.97100    1.000
    C119     C        0.68607    0.85535    0.93747    1.000
    C120     C        0.65420    0.82482    0.93144    1.000
    H49      H        0.64620    0.81850    0.91110    1.000
    C121     C        0.63352    0.80317    0.95451    1.000
    H50      H        0.61130    0.78170    0.95020    1.000
    C122     C        0.70836    0.88018    0.91217    1.000
    O16      O        0.73386    0.91015    0.92075    1.000
    O17      O        0.70072    0.87012    0.88545    1.000
    N11      N        0.59138    0.65003    0.10887    1.000
    N12      N        0.66353    0.59977    0.10708    1.000
    Zn5      Zn       0.27891    0.43928    0.89590    1.000
    Zn6      Zn       0.30411    0.51821    0.85104    1.000
    O18      O        0.26523    0.46140    0.85657    1.000
    C123     C        0.61160    0.64688    0.07781    1.000
    C124     C        0.57970    0.61160    0.12660    1.000
    C125     C        0.63030    0.66336    0.12885    1.000
    C126     C        0.64840    0.60910    0.07646    1.000
    C127     C        0.67990    0.63810    0.12419    1.000
    C128     C        0.62260    0.58280    0.12560    1.000
    C129     C        0.61690    0.57590    0.10320    1.000
    C130     C        0.66990    0.62900    0.08000    1.000
    C131     C        0.66230    0.61980    0.13570    1.000
    C132     C        0.57270    0.60570    0.11100    1.000
    Zn7      Zn       0.46932    0.80712    0.10933    1.000
    N13      N        0.47896    0.80334    0.06311    1.000
    N14      N        0.52444    0.84930    0.11082    1.000
    N15      N        0.47414    0.80102    0.15586    1.000
    N16      N        0.42937    0.75401    0.10826    1.000
    C133     C        0.45273    0.77902    0.04382    1.000
    C134     C        0.46413    0.79015    0.01309    1.000
    H51      H        0.45140    0.77770    0.99540    1.000
    C135     C        0.49535    0.82070    0.01386    1.000
    H52      H        0.50880    0.83460    0.99690    1.000
    C136     C        0.50510    0.82901    0.04531    1.000
    C137     C        0.53631    0.86003    0.05610    1.000
    C138     C        0.54571    0.86930    0.08660    1.000
    C139     C        0.57726    0.90068    0.09696    1.000
    H53      H        0.59630    0.91860    0.08490    1.000
    C140     C        0.57470    0.89980    0.12775    1.000
    H54      H        0.59180    0.91720    0.14130    1.000
    C141     C        0.54215    0.86846    0.13589    1.000
    C142     C        0.52910    0.85832    0.16571    1.000
    C143     C        0.49821    0.82616    0.17483    1.000
    C144     C        0.48739    0.81549    0.20548    1.000
    H55      H        0.49970    0.82850    0.22310    1.000
    C145     C        0.45669    0.78374    0.20483    1.000
    H56      H        0.44370    0.76990    0.22190    1.000
    C146     C        0.44706    0.77450    0.17347    1.000
    C147     C        0.41628    0.74415    0.16266    1.000
    C148     C        0.40712    0.73444    0.13199    1.000
    C149     C        0.37457    0.70450    0.12134    1.000
    H57      H        0.35530    0.68680    0.13350    1.000
    C150     C        0.37556    0.70535    0.09097    1.000
    H58      H        0.35730    0.68850    0.07770    1.000
    C151     C        0.40903    0.73606    0.08255    1.000
    C152     C        0.42065    0.74819    0.05281    1.000
    C153     C        0.55946    0.88504    0.03385    1.000
    C154     C        0.57786    0.90482    0.01470    1.000
    C155     C        0.60038    0.92747    0.99060    1.000
    C156     C        0.58962    0.91843    0.96033    1.000
    H59      H        0.56610    0.89820    0.95550    1.000
    C157     C        0.61341    0.93910    0.93764    1.000
    H60      H        0.60710    0.93200    0.91720    1.000
    C158     C        0.64574    0.96935    0.94374    1.000
    C159     C        0.65558    0.97953    0.97367    1.000
    H61      H        0.67780    0.00100    0.97790    1.000
    C160     C        0.63413    0.95940    0.99693    1.000
    H62      H        0.64150    0.96650    0.01730    1.000
    C161     C        0.67186    0.99180    0.91877    1.000
    O19      O        0.66542    0.97783    0.89229    1.000
    O20      O        0.69823    0.02120    0.92563    1.000
    C162     C        0.54902    0.88311    0.18935    1.000
    C163     C        0.56436    0.90396    0.20901    1.000
    C164     C        0.58521    0.92821    0.23261    1.000
    C165     C        0.62020    0.95565    0.22682    1.000
    H63      H        0.62960    0.96050    0.20650    1.000
    C166     C        0.64270    0.97708    0.24991    1.000
    H64      H        0.66800    0.99590    0.24550    1.000
    C167     C        0.62780    0.97070    0.27978    1.000
    C168     C        0.59050    0.94417    0.28534    1.000
    H65      H        0.57950    0.94060    0.30550    1.000
    C169     C        0.56868    0.92273    0.26257    1.000
    H66      H        0.54280    0.90440    0.26680    1.000
    C170     C        0.65403    0.99092    0.30565    1.000
    O21      O        0.69415    0.00943    0.30083    1.000
    O22      O        0.63657    0.98806    0.33142    1.000
    C171     C        0.39006    0.71960    0.18490    1.000
    C172     C        0.36795    0.69930    0.20245    1.000
    C173     C        0.34286    0.67319    0.22249    1.000
    C174     C        0.35380    0.67117    0.25219    1.000
    H67      H        0.37850    0.68840    0.26010    1.000
    C175     C        0.32970    0.64435    0.27156    1.000
    H68      H        0.33790    0.64370    0.29240    1.000
    C176     C        0.29480    0.61940    0.26086    1.000
    C177     C        0.28470    0.62034    0.22963    1.000
    H69      H        0.26170    0.60180    0.22130    1.000
    C178     C        0.30730    0.64730    0.21142    1.000
    H70      H        0.29870    0.64860    0.19060    1.000
    C179     C        0.26980    0.58959    0.28157    1.000
    O23      O        0.28046    0.58899    0.30845    1.000
    O24      O        0.24184    0.56178    0.26712    1.000
    H71      H        0.22380    0.55000    0.27970    1.000
    C180     C        0.39653    0.72673    0.02913    1.000
    C181     C        0.37681    0.70905    0.00873    1.000
    C182     C        0.35491    0.68733    0.98443    1.000
    C183     C        0.32268    0.65713    0.99013    1.000
    H72      H        0.31410    0.65090    0.01040    1.000
    C184     C        0.30219    0.63530    0.96678    1.000
    H73      H        0.28000    0.61380    0.97100    1.000
    C185     C        0.31393    0.64465    0.93747    1.000
    C186     C        0.34580    0.67518    0.93144    1.000
    H74      H        0.35380    0.68150    0.91110    1.000
    C187     C        0.36648    0.69683    0.95451    1.000
    H75      H        0.38870    0.71830    0.95020    1.000
    C188     C        0.29164    0.61982    0.91217    1.000
    O25      O        0.26614    0.58985    0.92075    1.000
    O26      O        0.29928    0.62988    0.88545    1.000
    N17      N        0.40862    0.84997    0.10887    1.000
    N18      N        0.33647    0.90023    0.10708    1.000
    Zn8      Zn       0.72109    0.06072    0.89590    1.000
    Zn9      Zn       0.69589    0.98179    0.85104    1.000
    O27      O        0.73477    0.03860    0.85657    1.000
    C189     C        0.38840    0.85312    0.07781    1.000
    C190     C        0.42030    0.88840    0.12660    1.000
    C191     C        0.36970    0.83664    0.12885    1.000
    C192     C        0.35160    0.89090    0.07646    1.000
    C193     C        0.32010    0.86190    0.12419    1.000
    C194     C        0.37740    0.91720    0.12560    1.000
    C195     C        0.38310    0.92410    0.10320    1.000
    C196     C        0.33010    0.87100    0.08000    1.000
    C197     C        0.33770    0.88020    0.13570    1.000
    C198     C        0.42730    0.89430    0.11100    1.000
    Zn10     Zn       0.96932    0.30712    0.10933    1.000
    N19      N        0.97896    0.30334    0.06311    1.000
    N20      N        0.02444    0.34930    0.11082    1.000
    N21      N        0.97414    0.30102    0.15586    1.000
    N22      N        0.92937    0.25401    0.10826    1.000
    C199     C        0.95273    0.27902    0.04382    1.000
    C200     C        0.96413    0.29015    0.01309    1.000
    H76      H        0.95140    0.27770    0.99540    1.000
    C201     C        0.99535    0.32070    0.01386    1.000
    H77      H        0.00880    0.33460    0.99690    1.000
    C202     C        0.00510    0.32901    0.04531    1.000
    C203     C        0.03631    0.36003    0.05610    1.000
    C204     C        0.04571    0.36930    0.08660    1.000
    C205     C        0.07726    0.40068    0.09696    1.000
    H78      H        0.09630    0.41860    0.08490    1.000
    C206     C        0.07470    0.39980    0.12775    1.000
    H79      H        0.09180    0.41720    0.14130    1.000
    C207     C        0.04215    0.36846    0.13589    1.000
    C208     C        0.02910    0.35832    0.16571    1.000
    C209     C        0.99821    0.32616    0.17483    1.000
    C210     C        0.98739    0.31549    0.20548    1.000
    H80      H        0.99970    0.32850    0.22310    1.000
    C211     C        0.95669    0.28374    0.20483    1.000
    H81      H        0.94370    0.26990    0.22190    1.000
    C212     C        0.94706    0.27450    0.17347    1.000
    C213     C        0.91628    0.24415    0.16266    1.000
    C214     C        0.90712    0.23444    0.13199    1.000
    C215     C        0.87457    0.20450    0.12134    1.000
    H82      H        0.85530    0.18680    0.13350    1.000
    C216     C        0.87556    0.20535    0.09097    1.000
    H83      H        0.85730    0.18850    0.07770    1.000
    C217     C        0.90903    0.23606    0.08255    1.000
    C218     C        0.92065    0.24819    0.05281    1.000
    C219     C        0.05946    0.38504    0.03385    1.000
    C220     C        0.07786    0.40482    0.01470    1.000
    C221     C        0.10038    0.42747    0.99060    1.000
    C222     C        0.08962    0.41843    0.96033    1.000
    H84      H        0.06610    0.39820    0.95550    1.000
    C223     C        0.11341    0.43910    0.93764    1.000
    H85      H        0.10710    0.43200    0.91720    1.000
    C224     C        0.14574    0.46935    0.94374    1.000
    C225     C        0.15558    0.47953    0.97367    1.000
    H86      H        0.17780    0.50100    0.97790    1.000
    C226     C        0.13413    0.45940    0.99693    1.000
    H87      H        0.14150    0.46650    0.01730    1.000
    C227     C        0.17186    0.49180    0.91877    1.000
    O28      O        0.16542    0.47783    0.89229    1.000
    O29      O        0.19823    0.52120    0.92563    1.000
    C228     C        0.04902    0.38311    0.18935    1.000
    C229     C        0.06436    0.40396    0.20901    1.000
    C230     C        0.08521    0.42821    0.23261    1.000
    C231     C        0.12020    0.45565    0.22682    1.000
    H88      H        0.12960    0.46050    0.20650    1.000
    C232     C        0.14270    0.47708    0.24991    1.000
    H89      H        0.16800    0.49590    0.24550    1.000
    C233     C        0.12780    0.47070    0.27978    1.000
    C234     C        0.09050    0.44417    0.28534    1.000
    H90      H        0.07950    0.44060    0.30550    1.000
    C235     C        0.06868    0.42273    0.26257    1.000
    H91      H        0.04280    0.40440    0.26680    1.000
    C236     C        0.15403    0.49092    0.30565    1.000
    O30      O        0.19415    0.50943    0.30083    1.000
    O31      O        0.13657    0.48806    0.33142    1.000
    C237     C        0.89006    0.21960    0.18490    1.000
    C238     C        0.86795    0.19930    0.20245    1.000
    C239     C        0.84286    0.17319    0.22249    1.000
    C240     C        0.85380    0.17117    0.25219    1.000
    H92      H        0.87850    0.18840    0.26010    1.000
    C241     C        0.82970    0.14435    0.27156    1.000
    H93      H        0.83790    0.14370    0.29240    1.000
    C242     C        0.79480    0.11940    0.26086    1.000
    C243     C        0.78470    0.12034    0.22963    1.000
    H94      H        0.76170    0.10180    0.22130    1.000
    C244     C        0.80730    0.14730    0.21142    1.000
    H95      H        0.79870    0.14860    0.19060    1.000
    C245     C        0.76980    0.08959    0.28157    1.000
    O32      O        0.78046    0.08899    0.30845    1.000
    O33      O        0.74184    0.06178    0.26712    1.000
    H96      H        0.72380    0.05000    0.27970    1.000
    C246     C        0.89653    0.22673    0.02913    1.000
    C247     C        0.87681    0.20905    0.00873    1.000
    C248     C        0.85491    0.18733    0.98443    1.000
    C249     C        0.82268    0.15713    0.99013    1.000
    H97      H        0.81410    0.15090    0.01040    1.000
    C250     C        0.80219    0.13530    0.96678    1.000
    H98      H        0.78000    0.11380    0.97100    1.000
    C251     C        0.81393    0.14465    0.93747    1.000
    C252     C        0.84580    0.17518    0.93144    1.000
    H99      H        0.85380    0.18150    0.91110    1.000
    C253     C        0.86648    0.19683    0.95451    1.000
    H100     H        0.88870    0.21830    0.95020    1.000
    C254     C        0.79164    0.11982    0.91217    1.000
    O34      O        0.76614    0.08985    0.92075    1.000
    O35      O        0.79928    0.12988    0.88545    1.000
    N23      N        0.90862    0.34997    0.10887    1.000
    N24      N        0.83647    0.40023    0.10708    1.000
    Zn11     Zn       0.22109    0.56072    0.89590    1.000
    Zn12     Zn       0.19589    0.48179    0.85104    1.000
    O36      O        0.23477    0.53860    0.85657    1.000
    C255     C        0.88840    0.35312    0.07781    1.000
    C256     C        0.92030    0.38840    0.12660    1.000
    C257     C        0.86970    0.33664    0.12885    1.000
    C258     C        0.85160    0.39090    0.07646    1.000
    C259     C        0.82010    0.36190    0.12419    1.000
    C260     C        0.87740    0.41720    0.12560    1.000
    C261     C        0.88310    0.42410    0.10320    1.000
    C262     C        0.83010    0.37100    0.08000    1.000
    C263     C        0.83770    0.38020    0.13570    1.000
    C264     C        0.92730    0.39430    0.11100    1.000
    Zn13     Zn       0.96932    0.19288    0.39067    1.000
    N25      N        0.97896    0.19666    0.43689    1.000
    N26      N        0.02444    0.15070    0.38918    1.000
    N27      N        0.97414    0.19898    0.34414    1.000
    N28      N        0.92937    0.24599    0.39174    1.000
    C265     C        0.95273    0.22098    0.45618    1.000
    C266     C        0.96413    0.20985    0.48691    1.000
    H101     H        0.95140    0.22230    0.50460    1.000
    C267     C        0.99535    0.17930    0.48614    1.000
    H102     H        0.00880    0.16540    0.50310    1.000
    C268     C        0.00510    0.17099    0.45469    1.000
    C269     C        0.03631    0.13997    0.44390    1.000
    C270     C        0.04571    0.13070    0.41340    1.000
    C271     C        0.07726    0.09932    0.40304    1.000
    H103     H        0.09630    0.08140    0.41510    1.000
    C272     C        0.07470    0.10020    0.37225    1.000
    H104     H        0.09180    0.08280    0.35870    1.000
    C273     C        0.04215    0.13154    0.36411    1.000
    C274     C        0.02910    0.14168    0.33429    1.000
    C275     C        0.99821    0.17384    0.32517    1.000
    C276     C        0.98739    0.18451    0.29452    1.000
    H105     H        0.99970    0.17150    0.27690    1.000
    C277     C        0.95669    0.21626    0.29517    1.000
    H106     H        0.94370    0.23010    0.27810    1.000
    C278     C        0.94706    0.22550    0.32653    1.000
    C279     C        0.91628    0.25585    0.33734    1.000
    C280     C        0.90712    0.26556    0.36801    1.000
    C281     C        0.87457    0.29550    0.37866    1.000
    H107     H        0.85530    0.31320    0.36650    1.000
    C282     C        0.87556    0.29465    0.40903    1.000
    H108     H        0.85730    0.31150    0.42230    1.000
    C283     C        0.90903    0.26394    0.41745    1.000
    C284     C        0.92065    0.25181    0.44719    1.000
    C285     C        0.05946    0.11496    0.46615    1.000
    C286     C        0.07786    0.09518    0.48530    1.000
    C287     C        0.10038    0.07253    0.50940    1.000
    C288     C        0.08962    0.08157    0.53967    1.000
    H109     H        0.06610    0.10180    0.54450    1.000
    C289     C        0.11341    0.06090    0.56236    1.000
    H110     H        0.10710    0.06800    0.58280    1.000
    C290     C        0.14574    0.03065    0.55626    1.000
    C291     C        0.15558    0.02047    0.52633    1.000
    H111     H        0.17780    0.99900    0.52210    1.000
    C292     C        0.13413    0.04060    0.50307    1.000
    H112     H        0.14150    0.03350    0.48270    1.000
    C293     C        0.17186    0.00820    0.58123    1.000
    O37      O        0.16542    0.02217    0.60771    1.000
    O38      O        0.19823    0.97880    0.57437    1.000
    C294     C        0.04902    0.11689    0.31065    1.000
    C295     C        0.06436    0.09604    0.29099    1.000
    C296     C        0.08521    0.07179    0.26739    1.000
    C297     C        0.12020    0.04435    0.27318    1.000
    H113     H        0.12960    0.03950    0.29350    1.000
    C298     C        0.14270    0.02292    0.25009    1.000
    H114     H        0.16800    0.00410    0.25450    1.000
    C299     C        0.12780    0.02930    0.22022    1.000
    C300     C        0.09050    0.05583    0.21466    1.000
    H115     H        0.07950    0.05940    0.19450    1.000
    C301     C        0.06868    0.07727    0.23743    1.000
    H116     H        0.04280    0.09560    0.23320    1.000
    C302     C        0.15403    0.00908    0.19435    1.000
    O39      O        0.19415    0.99057    0.19917    1.000
    O40      O        0.13657    0.01194    0.16858    1.000
    C303     C        0.89006    0.28040    0.31510    1.000
    C304     C        0.86795    0.30070    0.29755    1.000
    C305     C        0.84286    0.32681    0.27751    1.000
    C306     C        0.85380    0.32883    0.24781    1.000
    H117     H        0.87850    0.31160    0.23990    1.000
    C307     C        0.82970    0.35565    0.22844    1.000
    H118     H        0.83790    0.35630    0.20760    1.000
    C308     C        0.79480    0.38060    0.23914    1.000
    C309     C        0.78470    0.37966    0.27037    1.000
    H119     H        0.76170    0.39820    0.27870    1.000
    C310     C        0.80730    0.35270    0.28858    1.000
    H120     H        0.79870    0.35140    0.30940    1.000
    C311     C        0.76980    0.41041    0.21843    1.000
    O41      O        0.78046    0.41101    0.19155    1.000
    O42      O        0.74184    0.43822    0.23288    1.000
    H121     H        0.72380    0.45000    0.22030    1.000
    C312     C        0.89653    0.27327    0.47087    1.000
    C313     C        0.87681    0.29095    0.49127    1.000
    C314     C        0.85491    0.31267    0.51557    1.000
    C315     C        0.82268    0.34287    0.50987    1.000
    H122     H        0.81410    0.34910    0.48960    1.000
    C316     C        0.80219    0.36470    0.53322    1.000
    H123     H        0.78000    0.38620    0.52900    1.000
    C317     C        0.81393    0.35535    0.56253    1.000
    C318     C        0.84580    0.32482    0.56856    1.000
    H124     H        0.85380    0.31850    0.58890    1.000
    C319     C        0.86648    0.30317    0.54549    1.000
    H125     H        0.88870    0.28170    0.54980    1.000
    C320     C        0.79164    0.38018    0.58783    1.000
    O43      O        0.76614    0.41015    0.57925    1.000
    O44      O        0.79928    0.37012    0.61455    1.000
    N29      N        0.90862    0.15003    0.39113    1.000
    N30      N        0.83647    0.09977    0.39292    1.000
    Zn14     Zn       0.22109    0.93928    0.60410    1.000
    Zn15     Zn       0.19589    0.01821    0.64896    1.000
    O45      O        0.23477    0.96140    0.64343    1.000
    C321     C        0.88840    0.14688    0.42219    1.000
    C322     C        0.92030    0.11160    0.37340    1.000
    C323     C        0.86970    0.16336    0.37115    1.000
    C324     C        0.85160    0.10910    0.42354    1.000
    C325     C        0.82010    0.13810    0.37581    1.000
    C326     C        0.87740    0.08280    0.37440    1.000
    C327     C        0.88310    0.07590    0.39680    1.000
    C328     C        0.83010    0.12900    0.42000    1.000
    C329     C        0.83770    0.11980    0.36430    1.000
    C330     C        0.92730    0.10570    0.38900    1.000
    Zn16     Zn       0.46932    0.69288    0.39067    1.000
    N31      N        0.47896    0.69666    0.43689    1.000
    N32      N        0.52444    0.65070    0.38918    1.000
    N33      N        0.47414    0.69898    0.34414    1.000
    N34      N        0.42937    0.74599    0.39174    1.000
    C331     C        0.45273    0.72098    0.45618    1.000
    C332     C        0.46413    0.70985    0.48691    1.000
    H126     H        0.45140    0.72230    0.50460    1.000
    C333     C        0.49535    0.67930    0.48614    1.000
    H127     H        0.50880    0.66540    0.50310    1.000
    C334     C        0.50510    0.67099    0.45469    1.000
    C335     C        0.53631    0.63997    0.44390    1.000
    C336     C        0.54571    0.63070    0.41340    1.000
    C337     C        0.57726    0.59932    0.40304    1.000
    H128     H        0.59630    0.58140    0.41510    1.000
    C338     C        0.57470    0.60020    0.37225    1.000
    H129     H        0.59180    0.58280    0.35870    1.000
    C339     C        0.54215    0.63154    0.36411    1.000
    C340     C        0.52910    0.64168    0.33429    1.000
    C341     C        0.49821    0.67384    0.32517    1.000
    C342     C        0.48739    0.68451    0.29452    1.000
    H130     H        0.49970    0.67150    0.27690    1.000
    C343     C        0.45669    0.71626    0.29517    1.000
    H131     H        0.44370    0.73010    0.27810    1.000
    C344     C        0.44706    0.72550    0.32653    1.000
    C345     C        0.41628    0.75585    0.33734    1.000
    C346     C        0.40712    0.76556    0.36801    1.000
    C347     C        0.37457    0.79550    0.37866    1.000
    H132     H        0.35530    0.81320    0.36650    1.000
    C348     C        0.37556    0.79465    0.40903    1.000
    H133     H        0.35730    0.81150    0.42230    1.000
    C349     C        0.40903    0.76394    0.41745    1.000
    C350     C        0.42065    0.75181    0.44719    1.000
    C351     C        0.55946    0.61496    0.46615    1.000
    C352     C        0.57786    0.59518    0.48530    1.000
    C353     C        0.60038    0.57253    0.50940    1.000
    C354     C        0.58962    0.58157    0.53967    1.000
    H134     H        0.56610    0.60180    0.54450    1.000
    C355     C        0.61341    0.56090    0.56236    1.000
    H135     H        0.60710    0.56800    0.58280    1.000
    C356     C        0.64574    0.53065    0.55626    1.000
    C357     C        0.65558    0.52047    0.52633    1.000
    H136     H        0.67780    0.49900    0.52210    1.000
    C358     C        0.63413    0.54060    0.50307    1.000
    H137     H        0.64150    0.53350    0.48270    1.000
    C359     C        0.67186    0.50820    0.58123    1.000
    O46      O        0.66542    0.52217    0.60771    1.000
    O47      O        0.69823    0.47880    0.57437    1.000
    C360     C        0.54902    0.61689    0.31065    1.000
    C361     C        0.56436    0.59604    0.29099    1.000
    C362     C        0.58521    0.57179    0.26739    1.000
    C363     C        0.62020    0.54435    0.27318    1.000
    H138     H        0.62960    0.53950    0.29350    1.000
    C364     C        0.64270    0.52292    0.25009    1.000
    H139     H        0.66800    0.50410    0.25450    1.000
    C365     C        0.62780    0.52930    0.22022    1.000
    C366     C        0.59050    0.55583    0.21466    1.000
    H140     H        0.57950    0.55940    0.19450    1.000
    C367     C        0.56868    0.57727    0.23743    1.000
    H141     H        0.54280    0.59560    0.23320    1.000
    C368     C        0.65403    0.50908    0.19435    1.000
    O48      O        0.69415    0.49057    0.19917    1.000
    O49      O        0.63657    0.51194    0.16858    1.000
    C369     C        0.39006    0.78040    0.31510    1.000
    C370     C        0.36795    0.80070    0.29755    1.000
    C371     C        0.34286    0.82681    0.27751    1.000
    C372     C        0.35380    0.82883    0.24781    1.000
    H142     H        0.37850    0.81160    0.23990    1.000
    C373     C        0.32970    0.85565    0.22844    1.000
    H143     H        0.33790    0.85630    0.20760    1.000
    C374     C        0.29480    0.88060    0.23914    1.000
    C375     C        0.28470    0.87966    0.27037    1.000
    H144     H        0.26170    0.89820    0.27870    1.000
    C376     C        0.30730    0.85270    0.28858    1.000
    H145     H        0.29870    0.85140    0.30940    1.000
    C377     C        0.26980    0.91041    0.21843    1.000
    O50      O        0.28046    0.91101    0.19155    1.000
    O51      O        0.24184    0.93822    0.23288    1.000
    H146     H        0.22380    0.95000    0.22030    1.000
    C378     C        0.39653    0.77327    0.47087    1.000
    C379     C        0.37681    0.79095    0.49127    1.000
    C380     C        0.35491    0.81267    0.51557    1.000
    C381     C        0.32268    0.84287    0.50987    1.000
    H147     H        0.31410    0.84910    0.48960    1.000
    C382     C        0.30219    0.86470    0.53322    1.000
    H148     H        0.28000    0.88620    0.52900    1.000
    C383     C        0.31393    0.85535    0.56253    1.000
    C384     C        0.34580    0.82482    0.56856    1.000
    H149     H        0.35380    0.81850    0.58890    1.000
    C385     C        0.36648    0.80317    0.54549    1.000
    H150     H        0.38870    0.78170    0.54980    1.000
    C386     C        0.29164    0.88018    0.58783    1.000
    O52      O        0.26614    0.91015    0.57925    1.000
    O53      O        0.29928    0.87012    0.61455    1.000
    N35      N        0.40862    0.65003    0.39113    1.000
    N36      N        0.33647    0.59977    0.39292    1.000
    Zn17     Zn       0.72109    0.43928    0.60410    1.000
    Zn18     Zn       0.69589    0.51821    0.64896    1.000
    O54      O        0.73477    0.46140    0.64343    1.000
    C387     C        0.38840    0.64688    0.42219    1.000
    C388     C        0.42030    0.61160    0.37340    1.000
    C389     C        0.36970    0.66336    0.37115    1.000
    C390     C        0.35160    0.60910    0.42354    1.000
    C391     C        0.32010    0.63810    0.37581    1.000
    C392     C        0.37740    0.58280    0.37440    1.000
    C393     C        0.38310    0.57590    0.39680    1.000
    C394     C        0.33010    0.62900    0.42000    1.000
    C395     C        0.33770    0.61980    0.36430    1.000
    C396     C        0.42730    0.60570    0.38900    1.000
    Zn19     Zn       0.53068    0.80712    0.39067    1.000
    N37      N        0.52104    0.80334    0.43689    1.000
    N38      N        0.47556    0.84930    0.38918    1.000
    N39      N        0.52586    0.80102    0.34414    1.000
    N40      N        0.57063    0.75401    0.39174    1.000
    C397     C        0.54727    0.77902    0.45618    1.000
    C398     C        0.53587    0.79015    0.48691    1.000
    H151     H        0.54860    0.77770    0.50460    1.000
    C399     C        0.50465    0.82070    0.48614    1.000
    H152     H        0.49120    0.83460    0.50310    1.000
    C400     C        0.49490    0.82901    0.45469    1.000
    C401     C        0.46369    0.86003    0.44390    1.000
    C402     C        0.45429    0.86930    0.41340    1.000
    C403     C        0.42274    0.90068    0.40304    1.000
    H153     H        0.40370    0.91860    0.41510    1.000
    C404     C        0.42530    0.89980    0.37225    1.000
    H154     H        0.40820    0.91720    0.35870    1.000
    C405     C        0.45785    0.86846    0.36411    1.000
    C406     C        0.47090    0.85832    0.33429    1.000
    C407     C        0.50179    0.82616    0.32517    1.000
    C408     C        0.51261    0.81549    0.29452    1.000
    H155     H        0.50030    0.82850    0.27690    1.000
    C409     C        0.54331    0.78374    0.29517    1.000
    H156     H        0.55630    0.76990    0.27810    1.000
    C410     C        0.55294    0.77450    0.32653    1.000
    C411     C        0.58372    0.74415    0.33734    1.000
    C412     C        0.59288    0.73444    0.36801    1.000
    C413     C        0.62543    0.70450    0.37866    1.000
    H157     H        0.64470    0.68680    0.36650    1.000
    C414     C        0.62444    0.70535    0.40903    1.000
    H158     H        0.64270    0.68850    0.42230    1.000
    C415     C        0.59097    0.73606    0.41745    1.000
    C416     C        0.57935    0.74819    0.44719    1.000
    C417     C        0.44054    0.88504    0.46615    1.000
    C418     C        0.42214    0.90482    0.48530    1.000
    C419     C        0.39962    0.92747    0.50940    1.000
    C420     C        0.41038    0.91843    0.53967    1.000
    H159     H        0.43390    0.89820    0.54450    1.000
    C421     C        0.38659    0.93910    0.56236    1.000
    H160     H        0.39290    0.93200    0.58280    1.000
    C422     C        0.35426    0.96935    0.55626    1.000
    C423     C        0.34442    0.97953    0.52633    1.000
    H161     H        0.32220    0.00100    0.52210    1.000
    C424     C        0.36587    0.95940    0.50307    1.000
    H162     H        0.35850    0.96650    0.48270    1.000
    C425     C        0.32814    0.99180    0.58123    1.000
    O55      O        0.33458    0.97783    0.60771    1.000
    O56      O        0.30177    0.02120    0.57437    1.000
    C426     C        0.45098    0.88311    0.31065    1.000
    C427     C        0.43564    0.90396    0.29099    1.000
    C428     C        0.41479    0.92821    0.26739    1.000
    C429     C        0.37980    0.95565    0.27318    1.000
    H163     H        0.37040    0.96050    0.29350    1.000
    C430     C        0.35730    0.97708    0.25009    1.000
    H164     H        0.33200    0.99590    0.25450    1.000
    C431     C        0.37220    0.97070    0.22022    1.000
    C432     C        0.40950    0.94417    0.21466    1.000
    H165     H        0.42050    0.94060    0.19450    1.000
    C433     C        0.43132    0.92273    0.23743    1.000
    H166     H        0.45720    0.90440    0.23320    1.000
    C434     C        0.34597    0.99092    0.19435    1.000
    O57      O        0.30585    0.00943    0.19917    1.000
    O58      O        0.36343    0.98806    0.16858    1.000
    C435     C        0.60994    0.71960    0.31510    1.000
    C436     C        0.63205    0.69930    0.29755    1.000
    C437     C        0.65714    0.67319    0.27751    1.000
    C438     C        0.64620    0.67117    0.24781    1.000
    H167     H        0.62150    0.68840    0.23990    1.000
    C439     C        0.67030    0.64435    0.22844    1.000
    H168     H        0.66210    0.64370    0.20760    1.000
    C440     C        0.70520    0.61940    0.23914    1.000
    C441     C        0.71530    0.62034    0.27037    1.000
    H169     H        0.73830    0.60180    0.27870    1.000
    C442     C        0.69270    0.64730    0.28858    1.000
    H170     H        0.70130    0.64860    0.30940    1.000
    C443     C        0.73020    0.58959    0.21843    1.000
    O59      O        0.71954    0.58899    0.19155    1.000
    O60      O        0.75816    0.56178    0.23288    1.000
    H171     H        0.77620    0.55000    0.22030    1.000
    C444     C        0.60347    0.72673    0.47087    1.000
    C445     C        0.62319    0.70905    0.49127    1.000
    C446     C        0.64509    0.68733    0.51557    1.000
    C447     C        0.67732    0.65713    0.50987    1.000
    H172     H        0.68590    0.65090    0.48960    1.000
    C448     C        0.69781    0.63530    0.53322    1.000
    H173     H        0.72000    0.61380    0.52900    1.000
    C449     C        0.68607    0.64465    0.56253    1.000
    C450     C        0.65420    0.67518    0.56856    1.000
    H174     H        0.64620    0.68150    0.58890    1.000
    C451     C        0.63352    0.69683    0.54549    1.000
    H175     H        0.61130    0.71830    0.54980    1.000
    C452     C        0.70836    0.61982    0.58783    1.000
    O61      O        0.73386    0.58985    0.57925    1.000
    O62      O        0.70072    0.62988    0.61455    1.000
    N41      N        0.59138    0.84997    0.39113    1.000
    N42      N        0.66353    0.90023    0.39292    1.000
    Zn20     Zn       0.27891    0.06072    0.60410    1.000
    Zn21     Zn       0.30411    0.98179    0.64896    1.000
    O63      O        0.26523    0.03860    0.64343    1.000
    C453     C        0.61160    0.85312    0.42219    1.000
    C454     C        0.57970    0.88840    0.37340    1.000
    C455     C        0.63030    0.83664    0.37115    1.000
    C456     C        0.64840    0.89090    0.42354    1.000
    C457     C        0.67990    0.86190    0.37581    1.000
    C458     C        0.62260    0.91720    0.37440    1.000
    C459     C        0.61690    0.92410    0.39680    1.000
    C460     C        0.66990    0.87100    0.42000    1.000
    C461     C        0.66230    0.88020    0.36430    1.000
    C462     C        0.57270    0.89430    0.38900    1.000
    Zn22     Zn       0.03068    0.30712    0.39067    1.000
    N43      N        0.02104    0.30334    0.43689    1.000
    N44      N        0.97556    0.34930    0.38918    1.000
    N45      N        0.02586    0.30102    0.34414    1.000
    N46      N        0.07063    0.25401    0.39174    1.000
    C463     C        0.04727    0.27902    0.45618    1.000
    C464     C        0.03587    0.29015    0.48691    1.000
    H176     H        0.04860    0.27770    0.50460    1.000
    C465     C        0.00465    0.32070    0.48614    1.000
    H177     H        0.99120    0.33460    0.50310    1.000
    C466     C        0.99490    0.32901    0.45469    1.000
    C467     C        0.96369    0.36003    0.44390    1.000
    C468     C        0.95429    0.36930    0.41340    1.000
    C469     C        0.92274    0.40068    0.40304    1.000
    H178     H        0.90370    0.41860    0.41510    1.000
    C470     C        0.92530    0.39980    0.37225    1.000
    H179     H        0.90820    0.41720    0.35870    1.000
    C471     C        0.95785    0.36846    0.36411    1.000
    C472     C        0.97090    0.35832    0.33429    1.000
    C473     C        0.00179    0.32616    0.32517    1.000
    C474     C        0.01261    0.31549    0.29452    1.000
    H180     H        0.00030    0.32850    0.27690    1.000
    C475     C        0.04331    0.28374    0.29517    1.000
    H181     H        0.05630    0.26990    0.27810    1.000
    C476     C        0.05294    0.27450    0.32653    1.000
    C477     C        0.08372    0.24415    0.33734    1.000
    C478     C        0.09288    0.23444    0.36801    1.000
    C479     C        0.12543    0.20450    0.37866    1.000
    H182     H        0.14470    0.18680    0.36650    1.000
    C480     C        0.12444    0.20535    0.40903    1.000
    H183     H        0.14270    0.18850    0.42230    1.000
    C481     C        0.09097    0.23606    0.41745    1.000
    C482     C        0.07935    0.24819    0.44719    1.000
    C483     C        0.94054    0.38504    0.46615    1.000
    C484     C        0.92214    0.40482    0.48530    1.000
    C485     C        0.89962    0.42747    0.50940    1.000
    C486     C        0.91038    0.41843    0.53967    1.000
    H184     H        0.93390    0.39820    0.54450    1.000
    C487     C        0.88659    0.43910    0.56236    1.000
    H185     H        0.89290    0.43200    0.58280    1.000
    C488     C        0.85426    0.46935    0.55626    1.000
    C489     C        0.84442    0.47953    0.52633    1.000
    H186     H        0.82220    0.50100    0.52210    1.000
    C490     C        0.86587    0.45940    0.50307    1.000
    H187     H        0.85850    0.46650    0.48270    1.000
    C491     C        0.82814    0.49180    0.58123    1.000
    O64      O        0.83458    0.47783    0.60771    1.000
    O65      O        0.80177    0.52120    0.57437    1.000
    C492     C        0.95098    0.38311    0.31065    1.000
    C493     C        0.93564    0.40396    0.29099    1.000
    C494     C        0.91479    0.42821    0.26739    1.000
    C495     C        0.87980    0.45565    0.27318    1.000
    H188     H        0.87040    0.46050    0.29350    1.000
    C496     C        0.85730    0.47708    0.25009    1.000
    H189     H        0.83200    0.49590    0.25450    1.000
    C497     C        0.87220    0.47070    0.22022    1.000
    C498     C        0.90950    0.44417    0.21466    1.000
    H190     H        0.92050    0.44060    0.19450    1.000
    C499     C        0.93132    0.42273    0.23743    1.000
    H191     H        0.95720    0.40440    0.23320    1.000
    C500     C        0.84597    0.49092    0.19435    1.000
    O66      O        0.80585    0.50943    0.19917    1.000
    O67      O        0.86343    0.48806    0.16858    1.000
    C501     C        0.10994    0.21960    0.31510    1.000
    C502     C        0.13205    0.19930    0.29755    1.000
    C503     C        0.15714    0.17319    0.27751    1.000
    C504     C        0.14620    0.17117    0.24781    1.000
    H192     H        0.12150    0.18840    0.23990    1.000
    C505     C        0.17030    0.14435    0.22844    1.000
    H193     H        0.16210    0.14370    0.20760    1.000
    C506     C        0.20520    0.11940    0.23914    1.000
    C507     C        0.21530    0.12034    0.27037    1.000
    H194     H        0.23830    0.10180    0.27870    1.000
    C508     C        0.19270    0.14730    0.28858    1.000
    H195     H        0.20130    0.14860    0.30940    1.000
    C509     C        0.23020    0.08959    0.21843    1.000
    O68      O        0.21954    0.08899    0.19155    1.000
    O69      O        0.25816    0.06178    0.23288    1.000
    H196     H        0.27620    0.05000    0.22030    1.000
    C510     C        0.10347    0.22673    0.47087    1.000
    C511     C        0.12319    0.20905    0.49127    1.000
    C512     C        0.14509    0.18733    0.51557    1.000
    C513     C        0.17732    0.15713    0.50987    1.000
    H197     H        0.18590    0.15090    0.48960    1.000
    C514     C        0.19781    0.13530    0.53322    1.000
    H198     H        0.22000    0.11380    0.52900    1.000
    C515     C        0.18607    0.14465    0.56253    1.000
    C516     C        0.15420    0.17518    0.56856    1.000
    H199     H        0.14620    0.18150    0.58890    1.000
    C517     C        0.13352    0.19683    0.54549    1.000
    H200     H        0.11130    0.21830    0.54980    1.000
    C518     C        0.20836    0.11982    0.58783    1.000
    O70      O        0.23386    0.08985    0.57925    1.000
    O71      O        0.20072    0.12988    0.61455    1.000
    N47      N        0.09138    0.34997    0.39113    1.000
    N48      N        0.16353    0.40023    0.39292    1.000
    Zn23     Zn       0.77891    0.56072    0.60410    1.000
    Zn24     Zn       0.80411    0.48179    0.64896    1.000
    O72      O        0.76523    0.53860    0.64343    1.000
    C519     C        0.11160    0.35312    0.42219    1.000
    C520     C        0.07970    0.38840    0.37340    1.000
    C521     C        0.13030    0.33664    0.37115    1.000
    C522     C        0.14840    0.39090    0.42354    1.000
    C523     C        0.17990    0.36190    0.37581    1.000
    C524     C        0.12260    0.41720    0.37440    1.000
    C525     C        0.11690    0.42410    0.39680    1.000
    C526     C        0.16990    0.37100    0.42000    1.000
    C527     C        0.16230    0.38020    0.36430    1.000
    C528     C        0.07270    0.39430    0.38900    1.000
    Zn25     Zn       0.96932    0.80712    0.89067    1.000
    N49      N        0.97896    0.80334    0.93689    1.000
    N50      N        0.02444    0.84930    0.88918    1.000
    N51      N        0.97414    0.80102    0.84414    1.000
    N52      N        0.92937    0.75401    0.89174    1.000
    C529     C        0.95273    0.77902    0.95618    1.000
    C530     C        0.96413    0.79015    0.98691    1.000
    H201     H        0.95140    0.77770    0.00460    1.000
    C531     C        0.99535    0.82070    0.98614    1.000
    H202     H        0.00880    0.83460    0.00310    1.000
    C532     C        0.00510    0.82901    0.95469    1.000
    C533     C        0.03631    0.86003    0.94390    1.000
    C534     C        0.04571    0.86930    0.91340    1.000
    C535     C        0.07726    0.90068    0.90304    1.000
    H203     H        0.09630    0.91860    0.91510    1.000
    C536     C        0.07470    0.89980    0.87225    1.000
    H204     H        0.09180    0.91720    0.85870    1.000
    C537     C        0.04215    0.86846    0.86411    1.000
    C538     C        0.02910    0.85832    0.83429    1.000
    C539     C        0.99821    0.82616    0.82517    1.000
    C540     C        0.98739    0.81549    0.79452    1.000
    H205     H        0.99970    0.82850    0.77690    1.000
    C541     C        0.95669    0.78374    0.79517    1.000
    H206     H        0.94370    0.76990    0.77810    1.000
    C542     C        0.94706    0.77450    0.82653    1.000
    C543     C        0.91628    0.74415    0.83734    1.000
    C544     C        0.90712    0.73444    0.86801    1.000
    C545     C        0.87457    0.70450    0.87866    1.000
    H207     H        0.85530    0.68680    0.86650    1.000
    C546     C        0.87556    0.70535    0.90903    1.000
    H208     H        0.85730    0.68850    0.92230    1.000
    C547     C        0.90903    0.73606    0.91745    1.000
    C548     C        0.92065    0.74819    0.94719    1.000
    C549     C        0.05946    0.88504    0.96615    1.000
    C550     C        0.07786    0.90482    0.98530    1.000
    C551     C        0.10038    0.92747    0.00940    1.000
    C552     C        0.08962    0.91843    0.03967    1.000
    H209     H        0.06610    0.89820    0.04450    1.000
    C553     C        0.11341    0.93910    0.06236    1.000
    H210     H        0.10710    0.93200    0.08280    1.000
    C554     C        0.14574    0.96935    0.05626    1.000
    C555     C        0.15558    0.97953    0.02633    1.000
    H211     H        0.17780    0.00100    0.02210    1.000
    C556     C        0.13413    0.95940    0.00307    1.000
    H212     H        0.14150    0.96650    0.98270    1.000
    C557     C        0.17186    0.99180    0.08123    1.000
    O73      O        0.16542    0.97783    0.10771    1.000
    O74      O        0.19823    0.02120    0.07437    1.000
    C558     C        0.04902    0.88311    0.81065    1.000
    C559     C        0.06436    0.90396    0.79099    1.000
    C560     C        0.08521    0.92821    0.76739    1.000
    C561     C        0.12020    0.95565    0.77318    1.000
    H213     H        0.12960    0.96050    0.79350    1.000
    C562     C        0.14270    0.97708    0.75009    1.000
    H214     H        0.16800    0.99590    0.75450    1.000
    C563     C        0.12780    0.97070    0.72022    1.000
    C564     C        0.09050    0.94417    0.71466    1.000
    H215     H        0.07950    0.94060    0.69450    1.000
    C565     C        0.06868    0.92273    0.73743    1.000
    H216     H        0.04280    0.90440    0.73320    1.000
    C566     C        0.15403    0.99092    0.69435    1.000
    O75      O        0.19415    0.00943    0.69917    1.000
    O76      O        0.13657    0.98806    0.66858    1.000
    C567     C        0.89006    0.71960    0.81510    1.000
    C568     C        0.86795    0.69930    0.79755    1.000
    C569     C        0.84286    0.67319    0.77751    1.000
    C570     C        0.85380    0.67117    0.74781    1.000
    H217     H        0.87850    0.68840    0.73990    1.000
    C571     C        0.82970    0.64435    0.72844    1.000
    H218     H        0.83790    0.64370    0.70760    1.000
    C572     C        0.79480    0.61940    0.73914    1.000
    C573     C        0.78470    0.62034    0.77037    1.000
    H219     H        0.76170    0.60180    0.77870    1.000
    C574     C        0.80730    0.64730    0.78858    1.000
    H220     H        0.79870    0.64860    0.80940    1.000
    C575     C        0.76980    0.58959    0.71843    1.000
    O77      O        0.78046    0.58899    0.69155    1.000
    O78      O        0.74184    0.56178    0.73288    1.000
    H221     H        0.72380    0.55000    0.72030    1.000
    C576     C        0.89653    0.72673    0.97087    1.000
    C577     C        0.87681    0.70905    0.99127    1.000
    C578     C        0.85491    0.68733    0.01557    1.000
    C579     C        0.82268    0.65713    0.00987    1.000
    H222     H        0.81410    0.65090    0.98960    1.000
    C580     C        0.80219    0.63530    0.03322    1.000
    H223     H        0.78000    0.61380    0.02900    1.000
    C581     C        0.81393    0.64465    0.06253    1.000
    C582     C        0.84580    0.67518    0.06856    1.000
    H224     H        0.85380    0.68150    0.08890    1.000
    C583     C        0.86648    0.69683    0.04549    1.000
    H225     H        0.88870    0.71830    0.04980    1.000
    C584     C        0.79164    0.61982    0.08783    1.000
    O79      O        0.76614    0.58985    0.07925    1.000
    O80      O        0.79928    0.62988    0.11455    1.000
    N53      N        0.90862    0.84997    0.89113    1.000
    N54      N        0.83647    0.90023    0.89292    1.000
    Zn26     Zn       0.22109    0.06072    0.10410    1.000
    Zn27     Zn       0.19589    0.98179    0.14896    1.000
    O81      O        0.23477    0.03860    0.14343    1.000
    C585     C        0.88840    0.85312    0.92219    1.000
    C586     C        0.92030    0.88840    0.87340    1.000
    C587     C        0.86970    0.83664    0.87115    1.000
    C588     C        0.85160    0.89090    0.92354    1.000
    C589     C        0.82010    0.86190    0.87581    1.000
    C590     C        0.87740    0.91720    0.87440    1.000
    C591     C        0.88310    0.92410    0.89680    1.000
    C592     C        0.83010    0.87100    0.92000    1.000
    C593     C        0.83770    0.88020    0.86430    1.000
    C594     C        0.92730    0.89430    0.88900    1.000
    Zn28     Zn       0.46932    0.30712    0.89067    1.000
    N55      N        0.47896    0.30334    0.93689    1.000
    N56      N        0.52444    0.34930    0.88918    1.000
    N57      N        0.47414    0.30102    0.84414    1.000
    N58      N        0.42937    0.25401    0.89174    1.000
    C595     C        0.45273    0.27902    0.95618    1.000
    C596     C        0.46413    0.29015    0.98691    1.000
    H226     H        0.45140    0.27770    0.00460    1.000
    C597     C        0.49535    0.32070    0.98614    1.000
    H227     H        0.50880    0.33460    0.00310    1.000
    C598     C        0.50510    0.32901    0.95469    1.000
    C599     C        0.53631    0.36003    0.94390    1.000
    C600     C        0.54571    0.36930    0.91340    1.000
    C601     C        0.57726    0.40068    0.90304    1.000
    H228     H        0.59630    0.41860    0.91510    1.000
    C602     C        0.57470    0.39980    0.87225    1.000
    H229     H        0.59180    0.41720    0.85870    1.000
    C603     C        0.54215    0.36846    0.86411    1.000
    C604     C        0.52910    0.35832    0.83429    1.000
    C605     C        0.49821    0.32616    0.82517    1.000
    C606     C        0.48739    0.31549    0.79452    1.000
    H230     H        0.49970    0.32850    0.77690    1.000
    C607     C        0.45669    0.28374    0.79517    1.000
    H231     H        0.44370    0.26990    0.77810    1.000
    C608     C        0.44706    0.27450    0.82653    1.000
    C609     C        0.41628    0.24415    0.83734    1.000
    C610     C        0.40712    0.23444    0.86801    1.000
    C611     C        0.37457    0.20450    0.87866    1.000
    H232     H        0.35530    0.18680    0.86650    1.000
    C612     C        0.37556    0.20535    0.90903    1.000
    H233     H        0.35730    0.18850    0.92230    1.000
    C613     C        0.40903    0.23606    0.91745    1.000
    C614     C        0.42065    0.24819    0.94719    1.000
    C615     C        0.55946    0.38504    0.96615    1.000
    C616     C        0.57786    0.40482    0.98530    1.000
    C617     C        0.60038    0.42747    0.00940    1.000
    C618     C        0.58962    0.41843    0.03967    1.000
    H234     H        0.56610    0.39820    0.04450    1.000
    C619     C        0.61341    0.43910    0.06236    1.000
    H235     H        0.60710    0.43200    0.08280    1.000
    C620     C        0.64574    0.46935    0.05626    1.000
    C621     C        0.65558    0.47953    0.02633    1.000
    H236     H        0.67780    0.50100    0.02210    1.000
    C622     C        0.63413    0.45940    0.00307    1.000
    H237     H        0.64150    0.46650    0.98270    1.000
    C623     C        0.67186    0.49180    0.08123    1.000
    O82      O        0.66542    0.47783    0.10771    1.000
    O83      O        0.69823    0.52120    0.07437    1.000
    C624     C        0.54902    0.38311    0.81065    1.000
    C625     C        0.56436    0.40396    0.79099    1.000
    C626     C        0.58521    0.42821    0.76739    1.000
    C627     C        0.62020    0.45565    0.77318    1.000
    H238     H        0.62960    0.46050    0.79350    1.000
    C628     C        0.64270    0.47708    0.75009    1.000
    H239     H        0.66800    0.49590    0.75450    1.000
    C629     C        0.62780    0.47070    0.72022    1.000
    C630     C        0.59050    0.44417    0.71466    1.000
    H240     H        0.57950    0.44060    0.69450    1.000
    C631     C        0.56868    0.42273    0.73743    1.000
    H241     H        0.54280    0.40440    0.73320    1.000
    C632     C        0.65403    0.49092    0.69435    1.000
    O84      O        0.69415    0.50943    0.69917    1.000
    O85      O        0.63657    0.48806    0.66858    1.000
    C633     C        0.39006    0.21960    0.81510    1.000
    C634     C        0.36795    0.19930    0.79755    1.000
    C635     C        0.34286    0.17319    0.77751    1.000
    C636     C        0.35380    0.17117    0.74781    1.000
    H242     H        0.37850    0.18840    0.73990    1.000
    C637     C        0.32970    0.14435    0.72844    1.000
    H243     H        0.33790    0.14370    0.70760    1.000
    C638     C        0.29480    0.11940    0.73914    1.000
    C639     C        0.28470    0.12034    0.77037    1.000
    H244     H        0.26170    0.10180    0.77870    1.000
    C640     C        0.30730    0.14730    0.78858    1.000
    H245     H        0.29870    0.14860    0.80940    1.000
    C641     C        0.26980    0.08959    0.71843    1.000
    O86      O        0.28046    0.08899    0.69155    1.000
    O87      O        0.24184    0.06178    0.73288    1.000
    H246     H        0.22380    0.05000    0.72030    1.000
    C642     C        0.39653    0.22673    0.97087    1.000
    C643     C        0.37681    0.20905    0.99127    1.000
    C644     C        0.35491    0.18733    0.01557    1.000
    C645     C        0.32268    0.15713    0.00987    1.000
    H247     H        0.31410    0.15090    0.98960    1.000
    C646     C        0.30219    0.13530    0.03322    1.000
    H248     H        0.28000    0.11380    0.02900    1.000
    C647     C        0.31393    0.14465    0.06253    1.000
    C648     C        0.34580    0.17518    0.06856    1.000
    H249     H        0.35380    0.18150    0.08890    1.000
    C649     C        0.36648    0.19683    0.04549    1.000
    H250     H        0.38870    0.21830    0.04980    1.000
    C650     C        0.29164    0.11982    0.08783    1.000
    O88      O        0.26614    0.08985    0.07925    1.000
    O89      O        0.29928    0.12988    0.11455    1.000
    N59      N        0.40862    0.34997    0.89113    1.000
    N60      N        0.33647    0.40023    0.89292    1.000
    Zn29     Zn       0.72109    0.56072    0.10410    1.000
    Zn30     Zn       0.69589    0.48179    0.14896    1.000
    O90      O        0.73477    0.53860    0.14343    1.000
    C651     C        0.38840    0.35312    0.92219    1.000
    C652     C        0.42030    0.38840    0.87340    1.000
    C653     C        0.36970    0.33664    0.87115    1.000
    C654     C        0.35160    0.39090    0.92354    1.000
    C655     C        0.32010    0.36190    0.87581    1.000
    C656     C        0.37740    0.41720    0.87440    1.000
    C657     C        0.38310    0.42410    0.89680    1.000
    C658     C        0.33010    0.37100    0.92000    1.000
    C659     C        0.33770    0.38020    0.86430    1.000
    C660     C        0.42730    0.39430    0.88900    1.000
    Zn31     Zn       0.53068    0.19288    0.89067    1.000
    N61      N        0.52104    0.19666    0.93689    1.000
    N62      N        0.47556    0.15070    0.88918    1.000
    N63      N        0.52586    0.19898    0.84414    1.000
    N64      N        0.57063    0.24599    0.89174    1.000
    C661     C        0.54727    0.22098    0.95618    1.000
    C662     C        0.53587    0.20985    0.98691    1.000
    H251     H        0.54860    0.22230    0.00460    1.000
    C663     C        0.50465    0.17930    0.98614    1.000
    H252     H        0.49120    0.16540    0.00310    1.000
    C664     C        0.49490    0.17099    0.95469    1.000
    C665     C        0.46369    0.13997    0.94390    1.000
    C666     C        0.45429    0.13070    0.91340    1.000
    C667     C        0.42274    0.09932    0.90304    1.000
    H253     H        0.40370    0.08140    0.91510    1.000
    C668     C        0.42530    0.10020    0.87225    1.000
    H254     H        0.40820    0.08280    0.85870    1.000
    C669     C        0.45785    0.13154    0.86411    1.000
    C670     C        0.47090    0.14168    0.83429    1.000
    C671     C        0.50179    0.17384    0.82517    1.000
    C672     C        0.51261    0.18451    0.79452    1.000
    H255     H        0.50030    0.17150    0.77690    1.000
    C673     C        0.54331    0.21626    0.79517    1.000
    H256     H        0.55630    0.23010    0.77810    1.000
    C674     C        0.55294    0.22550    0.82653    1.000
    C675     C        0.58372    0.25585    0.83734    1.000
    C676     C        0.59288    0.26556    0.86801    1.000
    C677     C        0.62543    0.29550    0.87866    1.000
    H257     H        0.64470    0.31320    0.86650    1.000
    C678     C        0.62444    0.29465    0.90903    1.000
    H258     H        0.64270    0.31150    0.92230    1.000
    C679     C        0.59097    0.26394    0.91745    1.000
    C680     C        0.57935    0.25181    0.94719    1.000
    C681     C        0.44054    0.11496    0.96615    1.000
    C682     C        0.42214    0.09518    0.98530    1.000
    C683     C        0.39962    0.07253    0.00940    1.000
    C684     C        0.41038    0.08157    0.03967    1.000
    H259     H        0.43390    0.10180    0.04450    1.000
    C685     C        0.38659    0.06090    0.06236    1.000
    H260     H        0.39290    0.06800    0.08280    1.000
    C686     C        0.35426    0.03065    0.05626    1.000
    C687     C        0.34442    0.02047    0.02633    1.000
    H261     H        0.32220    0.99900    0.02210    1.000
    C688     C        0.36587    0.04060    0.00307    1.000
    H262     H        0.35850    0.03350    0.98270    1.000
    C689     C        0.32814    0.00820    0.08123    1.000
    O91      O        0.33458    0.02217    0.10771    1.000
    O92      O        0.30177    0.97880    0.07437    1.000
    C690     C        0.45098    0.11689    0.81065    1.000
    C691     C        0.43564    0.09604    0.79099    1.000
    C692     C        0.41479    0.07179    0.76739    1.000
    C693     C        0.37980    0.04435    0.77318    1.000
    H263     H        0.37040    0.03950    0.79350    1.000
    C694     C        0.35730    0.02292    0.75009    1.000
    H264     H        0.33200    0.00410    0.75450    1.000
    C695     C        0.37220    0.02930    0.72022    1.000
    C696     C        0.40950    0.05583    0.71466    1.000
    H265     H        0.42050    0.05940    0.69450    1.000
    C697     C        0.43132    0.07727    0.73743    1.000
    H266     H        0.45720    0.09560    0.73320    1.000
    C698     C        0.34597    0.00908    0.69435    1.000
    O93      O        0.30585    0.99057    0.69917    1.000
    O94      O        0.36343    0.01194    0.66858    1.000
    C699     C        0.60994    0.28040    0.81510    1.000
    C700     C        0.63205    0.30070    0.79755    1.000
    C701     C        0.65714    0.32681    0.77751    1.000
    C702     C        0.64620    0.32883    0.74781    1.000
    H267     H        0.62150    0.31160    0.73990    1.000
    C703     C        0.67030    0.35565    0.72844    1.000
    H268     H        0.66210    0.35630    0.70760    1.000
    C704     C        0.70520    0.38060    0.73914    1.000
    C705     C        0.71530    0.37966    0.77037    1.000
    H269     H        0.73830    0.39820    0.77870    1.000
    C706     C        0.69270    0.35270    0.78858    1.000
    H270     H        0.70130    0.35140    0.80940    1.000
    C707     C        0.73020    0.41041    0.71843    1.000
    O95      O        0.71954    0.41101    0.69155    1.000
    O96      O        0.75816    0.43822    0.73288    1.000
    H271     H        0.77620    0.45000    0.72030    1.000
    C708     C        0.60347    0.27327    0.97087    1.000
    C709     C        0.62319    0.29095    0.99127    1.000
    C710     C        0.64509    0.31267    0.01557    1.000
    C711     C        0.67732    0.34287    0.00987    1.000
    H272     H        0.68590    0.34910    0.98960    1.000
    C712     C        0.69781    0.36470    0.03322    1.000
    H273     H        0.72000    0.38620    0.02900    1.000
    C713     C        0.68607    0.35535    0.06253    1.000
    C714     C        0.65420    0.32482    0.06856    1.000
    H274     H        0.64620    0.31850    0.08890    1.000
    C715     C        0.63352    0.30317    0.04549    1.000
    H275     H        0.61130    0.28170    0.04980    1.000
    C716     C        0.70836    0.38018    0.08783    1.000
    O97      O        0.73386    0.41015    0.07925    1.000
    O98      O        0.70072    0.37012    0.11455    1.000
    N65      N        0.59138    0.15003    0.89113    1.000
    N66      N        0.66353    0.09977    0.89292    1.000
    Zn32     Zn       0.27891    0.93928    0.10410    1.000
    Zn33     Zn       0.30411    0.01821    0.14896    1.000
    O99      O        0.26523    0.96140    0.14343    1.000
    C717     C        0.61160    0.14688    0.92219    1.000
    C718     C        0.57970    0.11160    0.87340    1.000
    C719     C        0.63030    0.16336    0.87115    1.000
    C720     C        0.64840    0.10910    0.92354    1.000
    C721     C        0.67990    0.13810    0.87581    1.000
    C722     C        0.62260    0.08280    0.87440    1.000
    C723     C        0.61690    0.07590    0.89680    1.000
    C724     C        0.66990    0.12900    0.92000    1.000
    C725     C        0.66230    0.11980    0.86430    1.000
    C726     C        0.57270    0.10570    0.88900    1.000
    Zn34     Zn       0.03068    0.69288    0.89067    1.000
    N67      N        0.02104    0.69666    0.93689    1.000
    N68      N        0.97556    0.65070    0.88918    1.000
    N69      N        0.02586    0.69898    0.84414    1.000
    N70      N        0.07063    0.74599    0.89174    1.000
    C727     C        0.04727    0.72098    0.95618    1.000
    C728     C        0.03587    0.70985    0.98691    1.000
    H276     H        0.04860    0.72230    0.00460    1.000
    C729     C        0.00465    0.67930    0.98614    1.000
    H277     H        0.99120    0.66540    0.00310    1.000
    C730     C        0.99490    0.67099    0.95469    1.000
    C731     C        0.96369    0.63997    0.94390    1.000
    C732     C        0.95429    0.63070    0.91340    1.000
    C733     C        0.92274    0.59932    0.90304    1.000
    H278     H        0.90370    0.58140    0.91510    1.000
    C734     C        0.92530    0.60020    0.87225    1.000
    H279     H        0.90820    0.58280    0.85870    1.000
    C735     C        0.95785    0.63154    0.86411    1.000
    C736     C        0.97090    0.64168    0.83429    1.000
    C737     C        0.00179    0.67384    0.82517    1.000
    C738     C        0.01261    0.68451    0.79452    1.000
    H280     H        0.00030    0.67150    0.77690    1.000
    C739     C        0.04331    0.71626    0.79517    1.000
    H281     H        0.05630    0.73010    0.77810    1.000
    C740     C        0.05294    0.72550    0.82653    1.000
    C741     C        0.08372    0.75585    0.83734    1.000
    C742     C        0.09288    0.76556    0.86801    1.000
    C743     C        0.12543    0.79550    0.87866    1.000
    H282     H        0.14470    0.81320    0.86650    1.000
    C744     C        0.12444    0.79465    0.90903    1.000
    H283     H        0.14270    0.81150    0.92230    1.000
    C745     C        0.09097    0.76394    0.91745    1.000
    C746     C        0.07935    0.75181    0.94719    1.000
    C747     C        0.94054    0.61496    0.96615    1.000
    C748     C        0.92214    0.59518    0.98530    1.000
    C749     C        0.89962    0.57253    0.00940    1.000
    C750     C        0.91038    0.58157    0.03967    1.000
    H284     H        0.93390    0.60180    0.04450    1.000
    C751     C        0.88659    0.56090    0.06236    1.000
    H285     H        0.89290    0.56800    0.08280    1.000
    C752     C        0.85426    0.53065    0.05626    1.000
    C753     C        0.84442    0.52047    0.02633    1.000
    H286     H        0.82220    0.49900    0.02210    1.000
    C754     C        0.86587    0.54060    0.00307    1.000
    H287     H        0.85850    0.53350    0.98270    1.000
    C755     C        0.82814    0.50820    0.08123    1.000
    O100     O        0.83458    0.52217    0.10771    1.000
    O101     O        0.80177    0.47880    0.07437    1.000
    C756     C        0.95098    0.61689    0.81065    1.000
    C757     C        0.93564    0.59604    0.79099    1.000
    C758     C        0.91479    0.57179    0.76739    1.000
    C759     C        0.87980    0.54435    0.77318    1.000
    H288     H        0.87040    0.53950    0.79350    1.000
    C760     C        0.85730    0.52292    0.75009    1.000
    H289     H        0.83200    0.50410    0.75450    1.000
    C761     C        0.87220    0.52930    0.72022    1.000
    C762     C        0.90950    0.55583    0.71466    1.000
    H290     H        0.92050    0.55940    0.69450    1.000
    C763     C        0.93132    0.57727    0.73743    1.000
    H291     H        0.95720    0.59560    0.73320    1.000
    C764     C        0.84597    0.50908    0.69435    1.000
    O102     O        0.80585    0.49057    0.69917    1.000
    O103     O        0.86343    0.51194    0.66858    1.000
    C765     C        0.10994    0.78040    0.81510    1.000
    C766     C        0.13205    0.80070    0.79755    1.000
    C767     C        0.15714    0.82681    0.77751    1.000
    C768     C        0.14620    0.82883    0.74781    1.000
    H292     H        0.12150    0.81160    0.73990    1.000
    C769     C        0.17030    0.85565    0.72844    1.000
    H293     H        0.16210    0.85630    0.70760    1.000
    C770     C        0.20520    0.88060    0.73914    1.000
    C771     C        0.21530    0.87966    0.77037    1.000
    H294     H        0.23830    0.89820    0.77870    1.000
    C772     C        0.19270    0.85270    0.78858    1.000
    H295     H        0.20130    0.85140    0.80940    1.000
    C773     C        0.23020    0.91041    0.71843    1.000
    O104     O        0.21954    0.91101    0.69155    1.000
    O105     O        0.25816    0.93822    0.73288    1.000
    H296     H        0.27620    0.95000    0.72030    1.000
    C774     C        0.10347    0.77327    0.97087    1.000
    C775     C        0.12319    0.79095    0.99127    1.000
    C776     C        0.14509    0.81267    0.01557    1.000
    C777     C        0.17732    0.84287    0.00987    1.000
    H297     H        0.18590    0.84910    0.98960    1.000
    C778     C        0.19781    0.86470    0.03322    1.000
    H298     H        0.22000    0.88620    0.02900    1.000
    C779     C        0.18607    0.85535    0.06253    1.000
    C780     C        0.15420    0.82482    0.06856    1.000
    H299     H        0.14620    0.81850    0.08890    1.000
    C781     C        0.13352    0.80317    0.04549    1.000
    H300     H        0.11130    0.78170    0.04980    1.000
    C782     C        0.20836    0.88018    0.08783    1.000
    O106     O        0.23386    0.91015    0.07925    1.000
    O107     O        0.20072    0.87012    0.11455    1.000
    N71      N        0.09138    0.65003    0.89113    1.000
    N72      N        0.16353    0.59977    0.89292    1.000
    Zn35     Zn       0.77891    0.43928    0.10410    1.000
    Zn36     Zn       0.80411    0.51821    0.14896    1.000
    O108     O        0.76523    0.46140    0.14343    1.000
    C783     C        0.11160    0.64688    0.92219    1.000
    C784     C        0.07970    0.61160    0.87340    1.000
    C785     C        0.13030    0.66336    0.87115    1.000
    C786     C        0.14840    0.60910    0.92354    1.000
    C787     C        0.17990    0.63810    0.87581    1.000
    C788     C        0.12260    0.58280    0.87440    1.000
    C789     C        0.11690    0.57590    0.89680    1.000
    C790     C        0.16990    0.62900    0.92000    1.000
    C791     C        0.16230    0.61980    0.86430    1.000
    C792     C        0.07270    0.60570    0.88900    1.000
    Zn37     Zn       0.03068    0.80712    0.60933    1.000
    N73      N        0.02104    0.80334    0.56311    1.000
    N74      N        0.97556    0.84930    0.61082    1.000
    N75      N        0.02586    0.80102    0.65586    1.000
    N76      N        0.07063    0.75401    0.60826    1.000
    C793     C        0.04727    0.77902    0.54382    1.000
    C794     C        0.03587    0.79015    0.51309    1.000
    H301     H        0.04860    0.77770    0.49540    1.000
    C795     C        0.00465    0.82070    0.51386    1.000
    H302     H        0.99120    0.83460    0.49690    1.000
    C796     C        0.99490    0.82901    0.54531    1.000
    C797     C        0.96369    0.86003    0.55610    1.000
    C798     C        0.95429    0.86930    0.58660    1.000
    C799     C        0.92274    0.90068    0.59696    1.000
    H303     H        0.90370    0.91860    0.58490    1.000
    C800     C        0.92530    0.89980    0.62775    1.000
    H304     H        0.90820    0.91720    0.64130    1.000
    C801     C        0.95785    0.86846    0.63589    1.000
    C802     C        0.97090    0.85832    0.66571    1.000
    C803     C        0.00179    0.82616    0.67483    1.000
    C804     C        0.01261    0.81549    0.70548    1.000
    H305     H        0.00030    0.82850    0.72310    1.000
    C805     C        0.04331    0.78374    0.70483    1.000
    H306     H        0.05630    0.76990    0.72190    1.000
    C806     C        0.05294    0.77450    0.67347    1.000
    C807     C        0.08372    0.74415    0.66266    1.000
    C808     C        0.09288    0.73444    0.63199    1.000
    C809     C        0.12543    0.70450    0.62134    1.000
    H307     H        0.14470    0.68680    0.63350    1.000
    C810     C        0.12444    0.70535    0.59097    1.000
    H308     H        0.14270    0.68850    0.57770    1.000
    C811     C        0.09097    0.73606    0.58255    1.000
    C812     C        0.07935    0.74819    0.55281    1.000
    C813     C        0.94054    0.88504    0.53385    1.000
    C814     C        0.92214    0.90482    0.51470    1.000
    C815     C        0.89962    0.92747    0.49060    1.000
    C816     C        0.91038    0.91843    0.46033    1.000
    H309     H        0.93390    0.89820    0.45550    1.000
    C817     C        0.88659    0.93910    0.43764    1.000
    H310     H        0.89290    0.93200    0.41720    1.000
    C818     C        0.85426    0.96935    0.44374    1.000
    C819     C        0.84442    0.97953    0.47367    1.000
    H311     H        0.82220    0.00100    0.47790    1.000
    C820     C        0.86587    0.95940    0.49693    1.000
    H312     H        0.85850    0.96650    0.51730    1.000
    C821     C        0.82814    0.99180    0.41877    1.000
    O109     O        0.83458    0.97783    0.39229    1.000
    O110     O        0.80177    0.02120    0.42563    1.000
    C822     C        0.95098    0.88311    0.68935    1.000
    C823     C        0.93564    0.90396    0.70901    1.000
    C824     C        0.91479    0.92821    0.73261    1.000
    C825     C        0.87980    0.95565    0.72682    1.000
    H313     H        0.87040    0.96050    0.70650    1.000
    C826     C        0.85730    0.97708    0.74991    1.000
    H314     H        0.83200    0.99590    0.74550    1.000
    C827     C        0.87220    0.97070    0.77978    1.000
    C828     C        0.90950    0.94417    0.78534    1.000
    H315     H        0.92050    0.94060    0.80550    1.000
    C829     C        0.93132    0.92273    0.76257    1.000
    H316     H        0.95720    0.90440    0.76680    1.000
    C830     C        0.84597    0.99092    0.80565    1.000
    O111     O        0.80585    0.00943    0.80083    1.000
    O112     O        0.86343    0.98806    0.83142    1.000
    C831     C        0.10994    0.71960    0.68490    1.000
    C832     C        0.13205    0.69930    0.70245    1.000
    C833     C        0.15714    0.67319    0.72249    1.000
    C834     C        0.14620    0.67117    0.75219    1.000
    H317     H        0.12150    0.68840    0.76010    1.000
    C835     C        0.17030    0.64435    0.77156    1.000
    H318     H        0.16210    0.64370    0.79240    1.000
    C836     C        0.20520    0.61940    0.76086    1.000
    C837     C        0.21530    0.62034    0.72963    1.000
    H319     H        0.23830    0.60180    0.72130    1.000
    C838     C        0.19270    0.64730    0.71142    1.000
    H320     H        0.20130    0.64860    0.69060    1.000
    C839     C        0.23020    0.58959    0.78157    1.000
    O113     O        0.21954    0.58899    0.80845    1.000
    O114     O        0.25816    0.56178    0.76712    1.000
    H321     H        0.27620    0.55000    0.77970    1.000
    C840     C        0.10347    0.72673    0.52913    1.000
    C841     C        0.12319    0.70905    0.50873    1.000
    C842     C        0.14509    0.68733    0.48443    1.000
    C843     C        0.17732    0.65713    0.49013    1.000
    H322     H        0.18590    0.65090    0.51040    1.000
    C844     C        0.19781    0.63530    0.46678    1.000
    H323     H        0.22000    0.61380    0.47100    1.000
    C845     C        0.18607    0.64465    0.43747    1.000
    C846     C        0.15420    0.67518    0.43144    1.000
    H324     H        0.14620    0.68150    0.41110    1.000
    C847     C        0.13352    0.69683    0.45451    1.000
    H325     H        0.11130    0.71830    0.45020    1.000
    C848     C        0.20836    0.61982    0.41217    1.000
    O115     O        0.23386    0.58985    0.42075    1.000
    O116     O        0.20072    0.62988    0.38545    1.000
    N77      N        0.09138    0.84997    0.60887    1.000
    N78      N        0.16353    0.90023    0.60708    1.000
    Zn38     Zn       0.77891    0.06072    0.39590    1.000
    Zn39     Zn       0.80411    0.98179    0.35104    1.000
    O117     O        0.76523    0.03860    0.35657    1.000
    C849     C        0.11160    0.85312    0.57781    1.000
    C850     C        0.07970    0.88840    0.62660    1.000
    C851     C        0.13030    0.83664    0.62885    1.000
    C852     C        0.14840    0.89090    0.57646    1.000
    C853     C        0.17990    0.86190    0.62419    1.000
    C854     C        0.12260    0.91720    0.62560    1.000
    C855     C        0.11690    0.92410    0.60320    1.000
    C856     C        0.16990    0.87100    0.58000    1.000
    C857     C        0.16230    0.88020    0.63570    1.000
    C858     C        0.07270    0.89430    0.61100    1.000
    Zn40     Zn       0.53068    0.30712    0.60933    1.000
    N79      N        0.52104    0.30334    0.56311    1.000
    N80      N        0.47556    0.34930    0.61082    1.000
    N81      N        0.52586    0.30102    0.65586    1.000
    N82      N        0.57063    0.25401    0.60826    1.000
    C859     C        0.54727    0.27902    0.54382    1.000
    C860     C        0.53587    0.29015    0.51309    1.000
    H326     H        0.54860    0.27770    0.49540    1.000
    C861     C        0.50465    0.32070    0.51386    1.000
    H327     H        0.49120    0.33460    0.49690    1.000
    C862     C        0.49490    0.32901    0.54531    1.000
    C863     C        0.46369    0.36003    0.55610    1.000
    C864     C        0.45429    0.36930    0.58660    1.000
    C865     C        0.42274    0.40068    0.59696    1.000
    H328     H        0.40370    0.41860    0.58490    1.000
    C866     C        0.42530    0.39980    0.62775    1.000
    H329     H        0.40820    0.41720    0.64130    1.000
    C867     C        0.45785    0.36846    0.63589    1.000
    C868     C        0.47090    0.35832    0.66571    1.000
    C869     C        0.50179    0.32616    0.67483    1.000
    C870     C        0.51261    0.31549    0.70548    1.000
    H330     H        0.50030    0.32850    0.72310    1.000
    C871     C        0.54331    0.28374    0.70483    1.000
    H331     H        0.55630    0.26990    0.72190    1.000
    C872     C        0.55294    0.27450    0.67347    1.000
    C873     C        0.58372    0.24415    0.66266    1.000
    C874     C        0.59288    0.23444    0.63199    1.000
    C875     C        0.62543    0.20450    0.62134    1.000
    H332     H        0.64470    0.18680    0.63350    1.000
    C876     C        0.62444    0.20535    0.59097    1.000
    H333     H        0.64270    0.18850    0.57770    1.000
    C877     C        0.59097    0.23606    0.58255    1.000
    C878     C        0.57935    0.24819    0.55281    1.000
    C879     C        0.44054    0.38504    0.53385    1.000
    C880     C        0.42214    0.40482    0.51470    1.000
    C881     C        0.39962    0.42747    0.49060    1.000
    C882     C        0.41038    0.41843    0.46033    1.000
    H334     H        0.43390    0.39820    0.45550    1.000
    C883     C        0.38659    0.43910    0.43764    1.000
    H335     H        0.39290    0.43200    0.41720    1.000
    C884     C        0.35426    0.46935    0.44374    1.000
    C885     C        0.34442    0.47953    0.47367    1.000
    H336     H        0.32220    0.50100    0.47790    1.000
    C886     C        0.36587    0.45940    0.49693    1.000
    H337     H        0.35850    0.46650    0.51730    1.000
    C887     C        0.32814    0.49180    0.41877    1.000
    O118     O        0.33458    0.47783    0.39229    1.000
    O119     O        0.30177    0.52120    0.42563    1.000
    C888     C        0.45098    0.38311    0.68935    1.000
    C889     C        0.43564    0.40396    0.70901    1.000
    C890     C        0.41479    0.42821    0.73261    1.000
    C891     C        0.37980    0.45565    0.72682    1.000
    H338     H        0.37040    0.46050    0.70650    1.000
    C892     C        0.35730    0.47708    0.74991    1.000
    H339     H        0.33200    0.49590    0.74550    1.000
    C893     C        0.37220    0.47070    0.77978    1.000
    C894     C        0.40950    0.44417    0.78534    1.000
    H340     H        0.42050    0.44060    0.80550    1.000
    C895     C        0.43132    0.42273    0.76257    1.000
    H341     H        0.45720    0.40440    0.76680    1.000
    C896     C        0.34597    0.49092    0.80565    1.000
    O120     O        0.30585    0.50943    0.80083    1.000
    O121     O        0.36343    0.48806    0.83142    1.000
    C897     C        0.60994    0.21960    0.68490    1.000
    C898     C        0.63205    0.19930    0.70245    1.000
    C899     C        0.65714    0.17319    0.72249    1.000
    C900     C        0.64620    0.17117    0.75219    1.000
    H342     H        0.62150    0.18840    0.76010    1.000
    C901     C        0.67030    0.14435    0.77156    1.000
    H343     H        0.66210    0.14370    0.79240    1.000
    C902     C        0.70520    0.11940    0.76086    1.000
    C903     C        0.71530    0.12034    0.72963    1.000
    H344     H        0.73830    0.10180    0.72130    1.000
    C904     C        0.69270    0.14730    0.71142    1.000
    H345     H        0.70130    0.14860    0.69060    1.000
    C905     C        0.73020    0.08959    0.78157    1.000
    O122     O        0.71954    0.08899    0.80845    1.000
    O123     O        0.75816    0.06178    0.76712    1.000
    H346     H        0.77620    0.05000    0.77970    1.000
    C906     C        0.60347    0.22673    0.52913    1.000
    C907     C        0.62319    0.20905    0.50873    1.000
    C908     C        0.64509    0.18733    0.48443    1.000
    C909     C        0.67732    0.15713    0.49013    1.000
    H347     H        0.68590    0.15090    0.51040    1.000
    C910     C        0.69781    0.13530    0.46678    1.000
    H348     H        0.72000    0.11380    0.47100    1.000
    C911     C        0.68607    0.14465    0.43747    1.000
    C912     C        0.65420    0.17518    0.43144    1.000
    H349     H        0.64620    0.18150    0.41110    1.000
    C913     C        0.63352    0.19683    0.45451    1.000
    H350     H        0.61130    0.21830    0.45020    1.000
    C914     C        0.70836    0.11982    0.41217    1.000
    O124     O        0.73386    0.08985    0.42075    1.000
    O125     O        0.70072    0.12988    0.38545    1.000
    N83      N        0.59138    0.34997    0.60887    1.000
    N84      N        0.66353    0.40023    0.60708    1.000
    Zn41     Zn       0.27891    0.56072    0.39590    1.000
    Zn42     Zn       0.30411    0.48179    0.35104    1.000
    O126     O        0.26523    0.53860    0.35657    1.000
    C915     C        0.61160    0.35312    0.57781    1.000
    C916     C        0.57970    0.38840    0.62660    1.000
    C917     C        0.63030    0.33664    0.62885    1.000
    C918     C        0.64840    0.39090    0.57646    1.000
    C919     C        0.67990    0.36190    0.62419    1.000
    C920     C        0.62260    0.41720    0.62560    1.000
    C921     C        0.61690    0.42410    0.60320    1.000
    C922     C        0.66990    0.37100    0.58000    1.000
    C923     C        0.66230    0.38020    0.63570    1.000
    C924     C        0.57270    0.39430    0.61100    1.000
    Zn43     Zn       0.46932    0.19288    0.60933    1.000
    N85      N        0.47896    0.19666    0.56311    1.000
    N86      N        0.52444    0.15070    0.61082    1.000
    N87      N        0.47414    0.19898    0.65586    1.000
    N88      N        0.42937    0.24599    0.60826    1.000
    C925     C        0.45273    0.22098    0.54382    1.000
    C926     C        0.46413    0.20985    0.51309    1.000
    H351     H        0.45140    0.22230    0.49540    1.000
    C927     C        0.49535    0.17930    0.51386    1.000
    H352     H        0.50880    0.16540    0.49690    1.000
    C928     C        0.50510    0.17099    0.54531    1.000
    C929     C        0.53631    0.13997    0.55610    1.000
    C930     C        0.54571    0.13070    0.58660    1.000
    C931     C        0.57726    0.09932    0.59696    1.000
    H353     H        0.59630    0.08140    0.58490    1.000
    C932     C        0.57470    0.10020    0.62775    1.000
    H354     H        0.59180    0.08280    0.64130    1.000
    C933     C        0.54215    0.13154    0.63589    1.000
    C934     C        0.52910    0.14168    0.66571    1.000
    C935     C        0.49821    0.17384    0.67483    1.000
    C936     C        0.48739    0.18451    0.70548    1.000
    H355     H        0.49970    0.17150    0.72310    1.000
    C937     C        0.45669    0.21626    0.70483    1.000
    H356     H        0.44370    0.23010    0.72190    1.000
    C938     C        0.44706    0.22550    0.67347    1.000
    C939     C        0.41628    0.25585    0.66266    1.000
    C940     C        0.40712    0.26556    0.63199    1.000
    C941     C        0.37457    0.29550    0.62134    1.000
    H357     H        0.35530    0.31320    0.63350    1.000
    C942     C        0.37556    0.29465    0.59097    1.000
    H358     H        0.35730    0.31150    0.57770    1.000
    C943     C        0.40903    0.26394    0.58255    1.000
    C944     C        0.42065    0.25181    0.55281    1.000
    C945     C        0.55946    0.11496    0.53385    1.000
    C946     C        0.57786    0.09518    0.51470    1.000
    C947     C        0.60038    0.07253    0.49060    1.000
    C948     C        0.58962    0.08157    0.46033    1.000
    H359     H        0.56610    0.10180    0.45550    1.000
    C949     C        0.61341    0.06090    0.43764    1.000
    H360     H        0.60710    0.06800    0.41720    1.000
    C950     C        0.64574    0.03065    0.44374    1.000
    C951     C        0.65558    0.02047    0.47367    1.000
    H361     H        0.67780    0.99900    0.47790    1.000
    C952     C        0.63413    0.04060    0.49693    1.000
    H362     H        0.64150    0.03350    0.51730    1.000
    C953     C        0.67186    0.00820    0.41877    1.000
    O127     O        0.66542    0.02217    0.39229    1.000
    O128     O        0.69823    0.97880    0.42563    1.000
    C954     C        0.54902    0.11689    0.68935    1.000
    C955     C        0.56436    0.09604    0.70901    1.000
    C956     C        0.58521    0.07179    0.73261    1.000
    C957     C        0.62020    0.04435    0.72682    1.000
    H363     H        0.62960    0.03950    0.70650    1.000
    C958     C        0.64270    0.02292    0.74991    1.000
    H364     H        0.66800    0.00410    0.74550    1.000
    C959     C        0.62780    0.02930    0.77978    1.000
    C960     C        0.59050    0.05583    0.78534    1.000
    H365     H        0.57950    0.05940    0.80550    1.000
    C961     C        0.56868    0.07727    0.76257    1.000
    H366     H        0.54280    0.09560    0.76680    1.000
    C962     C        0.65403    0.00908    0.80565    1.000
    O129     O        0.69415    0.99057    0.80083    1.000
    O130     O        0.63657    0.01194    0.83142    1.000
    C963     C        0.39006    0.28040    0.68490    1.000
    C964     C        0.36795    0.30070    0.70245    1.000
    C965     C        0.34286    0.32681    0.72249    1.000
    C966     C        0.35380    0.32883    0.75219    1.000
    H367     H        0.37850    0.31160    0.76010    1.000
    C967     C        0.32970    0.35565    0.77156    1.000
    H368     H        0.33790    0.35630    0.79240    1.000
    C968     C        0.29480    0.38060    0.76086    1.000
    C969     C        0.28470    0.37966    0.72963    1.000
    H369     H        0.26170    0.39820    0.72130    1.000
    C970     C        0.30730    0.35270    0.71142    1.000
    H370     H        0.29870    0.35140    0.69060    1.000
    C971     C        0.26980    0.41041    0.78157    1.000
    O131     O        0.28046    0.41101    0.80845    1.000
    O132     O        0.24184    0.43822    0.76712    1.000
    H371     H        0.22380    0.45000    0.77970    1.000
    C972     C        0.39653    0.27327    0.52913    1.000
    C973     C        0.37681    0.29095    0.50873    1.000
    C974     C        0.35491    0.31267    0.48443    1.000
    C975     C        0.32268    0.34287    0.49013    1.000
    H372     H        0.31410    0.34910    0.51040    1.000
    C976     C        0.30219    0.36470    0.46678    1.000
    H373     H        0.28000    0.38620    0.47100    1.000
    C977     C        0.31393    0.35535    0.43747    1.000
    C978     C        0.34580    0.32482    0.43144    1.000
    H374     H        0.35380    0.31850    0.41110    1.000
    C979     C        0.36648    0.30317    0.45451    1.000
    H375     H        0.38870    0.28170    0.45020    1.000
    C980     C        0.29164    0.38018    0.41217    1.000
    O133     O        0.26614    0.41015    0.42075    1.000
    O134     O        0.29928    0.37012    0.38545    1.000
    N89      N        0.40862    0.15003    0.60887    1.000
    N90      N        0.33647    0.09977    0.60708    1.000
    Zn44     Zn       0.72109    0.93928    0.39590    1.000
    Zn45     Zn       0.69589    0.01821    0.35104    1.000
    O135     O        0.73477    0.96140    0.35657    1.000
    C981     C        0.38840    0.14688    0.57781    1.000
    C982     C        0.42030    0.11160    0.62660    1.000
    C983     C        0.36970    0.16336    0.62885    1.000
    C984     C        0.35160    0.10910    0.57646    1.000
    C985     C        0.32010    0.13810    0.62419    1.000
    C986     C        0.37740    0.08280    0.62560    1.000
    C987     C        0.38310    0.07590    0.60320    1.000
    C988     C        0.33010    0.12900    0.58000    1.000
    C989     C        0.33770    0.11980    0.63570    1.000
    C990     C        0.42730    0.10570    0.61100    1.000
    Zn46     Zn       0.96932    0.69288    0.60933    1.000
    N91      N        0.97896    0.69666    0.56311    1.000
    N92      N        0.02444    0.65070    0.61082    1.000
    N93      N        0.97414    0.69898    0.65586    1.000
    N94      N        0.92937    0.74599    0.60826    1.000
    C991     C        0.95273    0.72098    0.54382    1.000
    C992     C        0.96413    0.70985    0.51309    1.000
    H376     H        0.95140    0.72230    0.49540    1.000
    C993     C        0.99535    0.67930    0.51386    1.000
    H377     H        0.00880    0.66540    0.49690    1.000
    C994     C        0.00510    0.67099    0.54531    1.000
    C995     C        0.03631    0.63997    0.55610    1.000
    C996     C        0.04571    0.63070    0.58660    1.000
    C997     C        0.07726    0.59932    0.59696    1.000
    H378     H        0.09630    0.58140    0.58490    1.000
    C998     C        0.07470    0.60020    0.62775    1.000
    H379     H        0.09180    0.58280    0.64130    1.000
    C999     C        0.04215    0.63154    0.63589    1.000
    C1000    C        0.02910    0.64168    0.66571    1.000
    C1001    C        0.99821    0.67384    0.67483    1.000
    C1002    C        0.98739    0.68451    0.70548    1.000
    H380     H        0.99970    0.67150    0.72310    1.000
    C1003    C        0.95669    0.71626    0.70483    1.000
    H381     H        0.94370    0.73010    0.72190    1.000
    C1004    C        0.94706    0.72550    0.67347    1.000
    C1005    C        0.91628    0.75585    0.66266    1.000
    C1006    C        0.90712    0.76556    0.63199    1.000
    C1007    C        0.87457    0.79550    0.62134    1.000
    H382     H        0.85530    0.81320    0.63350    1.000
    C1008    C        0.87556    0.79465    0.59097    1.000
    H383     H        0.85730    0.81150    0.57770    1.000
    C1009    C        0.90903    0.76394    0.58255    1.000
    C1010    C        0.92065    0.75181    0.55281    1.000
    C1011    C        0.05946    0.61496    0.53385    1.000
    C1012    C        0.07786    0.59518    0.51470    1.000
    C1013    C        0.10038    0.57253    0.49060    1.000
    C1014    C        0.08962    0.58157    0.46033    1.000
    H384     H        0.06610    0.60180    0.45550    1.000
    C1015    C        0.11341    0.56090    0.43764    1.000
    H385     H        0.10710    0.56800    0.41720    1.000
    C1016    C        0.14574    0.53065    0.44374    1.000
    C1017    C        0.15558    0.52047    0.47367    1.000
    H386     H        0.17780    0.49900    0.47790    1.000
    C1018    C        0.13413    0.54060    0.49693    1.000
    H387     H        0.14150    0.53350    0.51730    1.000
    C1019    C        0.17186    0.50820    0.41877    1.000
    O136     O        0.16542    0.52217    0.39229    1.000
    O137     O        0.19823    0.47880    0.42563    1.000
    C1020    C        0.04902    0.61689    0.68935    1.000
    C1021    C        0.06436    0.59604    0.70901    1.000
    C1022    C        0.08521    0.57179    0.73261    1.000
    C1023    C        0.12020    0.54435    0.72682    1.000
    H388     H        0.12960    0.53950    0.70650    1.000
    C1024    C        0.14270    0.52292    0.74991    1.000
    H389     H        0.16800    0.50410    0.74550    1.000
    C1025    C        0.12780    0.52930    0.77978    1.000
    C1026    C        0.09050    0.55583    0.78534    1.000
    H390     H        0.07950    0.55940    0.80550    1.000
    C1027    C        0.06868    0.57727    0.76257    1.000
    H391     H        0.04280    0.59560    0.76680    1.000
    C1028    C        0.15403    0.50908    0.80565    1.000
    O138     O        0.19415    0.49057    0.80083    1.000
    O139     O        0.13657    0.51194    0.83142    1.000
    C1029    C        0.89006    0.78040    0.68490    1.000
    C1030    C        0.86795    0.80070    0.70245    1.000
    C1031    C        0.84286    0.82681    0.72249    1.000
    C1032    C        0.85380    0.82883    0.75219    1.000
    H392     H        0.87850    0.81160    0.76010    1.000
    C1033    C        0.82970    0.85565    0.77156    1.000
    H393     H        0.83790    0.85630    0.79240    1.000
    C1034    C        0.79480    0.88060    0.76086    1.000
    C1035    C        0.78470    0.87966    0.72963    1.000
    H394     H        0.76170    0.89820    0.72130    1.000
    C1036    C        0.80730    0.85270    0.71142    1.000
    H395     H        0.79870    0.85140    0.69060    1.000
    C1037    C        0.76980    0.91041    0.78157    1.000
    O140     O        0.78046    0.91101    0.80845    1.000
    O141     O        0.74184    0.93822    0.76712    1.000
    H396     H        0.72380    0.95000    0.77970    1.000
    C1038    C        0.89653    0.77327    0.52913    1.000
    C1039    C        0.87681    0.79095    0.50873    1.000
    C1040    C        0.85491    0.81267    0.48443    1.000
    C1041    C        0.82268    0.84287    0.49013    1.000
    H397     H        0.81410    0.84910    0.51040    1.000
    C1042    C        0.80219    0.86470    0.46678    1.000
    H398     H        0.78000    0.88620    0.47100    1.000
    C1043    C        0.81393    0.85535    0.43747    1.000
    C1044    C        0.84580    0.82482    0.43144    1.000
    H399     H        0.85380    0.81850    0.41110    1.000
    C1045    C        0.86648    0.80317    0.45451    1.000
    H400     H        0.88870    0.78170    0.45020    1.000
    C1046    C        0.79164    0.88018    0.41217    1.000
    O142     O        0.76614    0.91015    0.42075    1.000
    O143     O        0.79928    0.87012    0.38545    1.000
    N95      N        0.90862    0.65003    0.60887    1.000
    N96      N        0.83647    0.59977    0.60708    1.000
    Zn47     Zn       0.22109    0.43928    0.39590    1.000
    Zn48     Zn       0.19589    0.51821    0.35104    1.000
    O144     O        0.23477    0.46140    0.35657    1.000
    C1047    C        0.88840    0.64688    0.57781    1.000
    C1048    C        0.92030    0.61160    0.62660    1.000
    C1049    C        0.86970    0.66336    0.62885    1.000
    C1050    C        0.85160    0.60910    0.57646    1.000
    C1051    C        0.82010    0.63810    0.62419    1.000
    C1052    C        0.87740    0.58280    0.62560    1.000
    C1053    C        0.88310    0.57590    0.60320    1.000
    C1054    C        0.83010    0.62900    0.58000    1.000
    C1055    C        0.83770    0.61980    0.63570    1.000
    C1056    C        0.92730    0.60570    0.61100    1.000
