# CIF file generated by openbabel 3.1.0, see https://openbabel.org
data_I
_chemical_name_common 'image0'
_cell_length_a 11.4766
_cell_length_b 11.4766
_cell_length_c 30.5554
_cell_angle_alpha 90
_cell_angle_beta 90
_cell_angle_gamma 90
_space_group_name_H-M_alt 'P 1'
_space_group_name_Hall 'P 1'
loop_
    _symmetry_equiv_pos_as_xyz
    x,y,z
loop_
    _atom_site_label
    _atom_site_type_symbol
    _atom_site_fract_x
    _atom_site_fract_y
    _atom_site_fract_z
    _atom_site_occupancy
    C1       C        0.10070    0.01760    0.32851    1.000
    H1       H        0.10090    0.10030    0.32720    1.000
    C2       C        0.90760    0.97020    0.42760    1.000
    H2       H        0.89870    0.88790    0.42680    1.000
    C3       C        0.84920    0.03440    0.45824    1.000
    H3       H        0.80100    0.99410    0.47850    1.000
    N1       N        0.85580    0.15100    0.46155    1.000
    C4       C        0.15730    0.95480    0.29700    1.000
    H4       H        0.19540    0.99580    0.27410    1.000
    N2       N        0.16150    0.83830    0.29695    1.000
    C5       C        0.04400    0.84000    0.36162    1.000
    H5       H        0.00400    0.79670    0.38340    1.000
    C6       C        0.92890    0.20210    0.43371    1.000
    H6       H        0.93950    0.28390    0.43610    1.000
    C7       C        0.98980    0.14430    0.40183    1.000
    H7       H        0.03900    0.18700    0.38260    1.000
    C8       C        0.98090    0.02610    0.39719    1.000
    C9       C        0.10390    0.78290    0.32862    1.000
    H8       H        0.10390    0.70020    0.32850    1.000
    C10      C        0.04280    0.96150    0.36256    1.000
    C11      C        0.39930    0.48240    0.32851    1.000
    H9       H        0.39910    0.39970    0.32720    1.000
    C12      C        0.59240    0.52980    0.42760    1.000
    H10      H        0.60130    0.61210    0.42680    1.000
    C13      C        0.65080    0.46560    0.45824    1.000
    H11      H        0.69900    0.50590    0.47850    1.000
    N3       N        0.64420    0.34900    0.46155    1.000
    C14      C        0.34270    0.54520    0.29700    1.000
    H12      H        0.30460    0.50420    0.27410    1.000
    N4       N        0.33850    0.66170    0.29695    1.000
    C15      C        0.45600    0.66000    0.36162    1.000
    H13      H        0.49600    0.70330    0.38340    1.000
    C16      C        0.57110    0.29790    0.43371    1.000
    H14      H        0.56050    0.21610    0.43610    1.000
    C17      C        0.51020    0.35570    0.40183    1.000
    H15      H        0.46100    0.31300    0.38260    1.000
    C18      C        0.51910    0.47390    0.39719    1.000
    C19      C        0.39610    0.71710    0.32862    1.000
    H16      H        0.39610    0.79980    0.32850    1.000
    C20      C        0.45720    0.53850    0.36256    1.000
    C21      C        0.51760    0.60070    0.17149    1.000
    H17      H        0.60030    0.60090    0.17280    1.000
    C22      C        0.47020    0.40760    0.07240    1.000
    H18      H        0.38790    0.39870    0.07320    1.000
    C23      C        0.53440    0.34920    0.04176    1.000
    H19      H        0.49410    0.30100    0.02150    1.000
    N5       N        0.65100    0.35580    0.03845    1.000
    C24      C        0.45480    0.65730    0.20300    1.000
    H20      H        0.49580    0.69540    0.22590    1.000
    N6       N        0.33830    0.66150    0.20305    1.000
    C25      C        0.34000    0.54400    0.13838    1.000
    H21      H        0.29670    0.50400    0.11660    1.000
    C26      C        0.70210    0.42890    0.06629    1.000
    H22      H        0.78390    0.43950    0.06390    1.000
    C27      C        0.64430    0.48980    0.09817    1.000
    H23      H        0.68700    0.53900    0.11740    1.000
    C28      C        0.52610    0.48090    0.10281    1.000
    C29      C        0.28290    0.60390    0.17138    1.000
    H24      H        0.20020    0.60390    0.17150    1.000
    C30      C        0.46150    0.54280    0.13744    1.000
    C31      C        0.98240    0.89930    0.17149    1.000
    H25      H        0.89970    0.89910    0.17280    1.000
    C32      C        0.02980    0.09240    0.07240    1.000
    H26      H        0.11210    0.10130    0.07320    1.000
    C33      C        0.96560    0.15080    0.04176    1.000
    H27      H        0.00590    0.19900    0.02150    1.000
    N7       N        0.84900    0.14420    0.03845    1.000
    C34      C        0.04520    0.84270    0.20300    1.000
    H28      H        0.00420    0.80460    0.22590    1.000
    N8       N        0.16170    0.83850    0.20305    1.000
    C35      C        0.16000    0.95600    0.13838    1.000
    H29      H        0.20330    0.99600    0.11660    1.000
    C36      C        0.79790    0.07110    0.06629    1.000
    H30      H        0.71610    0.06050    0.06390    1.000
    C37      C        0.85570    0.01020    0.09817    1.000
    H31      H        0.81300    0.96100    0.11740    1.000
    C38      C        0.97390    0.01910    0.10281    1.000
    C39      C        0.21710    0.89610    0.17138    1.000
    H32      H        0.29980    0.89610    0.17150    1.000
    C40      C        0.03850    0.95720    0.13744    1.000
    C41      C        0.51760    0.89930    0.67149    1.000
    H33      H        0.60030    0.89910    0.67280    1.000
    C42      C        0.47020    0.09240    0.57240    1.000
    H34      H        0.38790    0.10130    0.57320    1.000
    C43      C        0.53440    0.15080    0.54176    1.000
    H35      H        0.49410    0.19900    0.52150    1.000
    N9       N        0.65100    0.14420    0.53845    1.000
    C44      C        0.45480    0.84270    0.70300    1.000
    H36      H        0.49580    0.80460    0.72590    1.000
    N10      N        0.33830    0.83850    0.70305    1.000
    C45      C        0.34000    0.95600    0.63838    1.000
    H37      H        0.29670    0.99600    0.61660    1.000
    C46      C        0.70210    0.07110    0.56629    1.000
    H38      H        0.78390    0.06050    0.56390    1.000
    C47      C        0.64430    0.01020    0.59817    1.000
    H39      H        0.68700    0.96100    0.61740    1.000
    C48      C        0.52610    0.01910    0.60281    1.000
    C49      C        0.28290    0.89610    0.67138    1.000
    H40      H        0.20020    0.89610    0.67150    1.000
    C50      C        0.46150    0.95720    0.63744    1.000
    C51      C        0.98240    0.60070    0.67149    1.000
    H41      H        0.89970    0.60090    0.67280    1.000
    C52      C        0.02980    0.40760    0.57240    1.000
    H42      H        0.11210    0.39870    0.57320    1.000
    C53      C        0.96560    0.34920    0.54176    1.000
    H43      H        0.00590    0.30100    0.52150    1.000
    N11      N        0.84900    0.35580    0.53845    1.000
    C54      C        0.04520    0.65730    0.70300    1.000
    H44      H        0.00420    0.69540    0.72590    1.000
    N12      N        0.16170    0.66150    0.70305    1.000
    C55      C        0.16000    0.54400    0.63838    1.000
    H45      H        0.20330    0.50400    0.61660    1.000
    C56      C        0.79790    0.42890    0.56629    1.000
    H46      H        0.71610    0.43950    0.56390    1.000
    C57      C        0.85570    0.48980    0.59817    1.000
    H47      H        0.81300    0.53900    0.61740    1.000
    C58      C        0.97390    0.48090    0.60281    1.000
    C59      C        0.21710    0.60390    0.67138    1.000
    H48      H        0.29980    0.60390    0.67150    1.000
    C60      C        0.03850    0.54280    0.63744    1.000
    C61      C        0.10070    0.48240    0.82851    1.000
    H49      H        0.10090    0.39970    0.82720    1.000
    C62      C        0.90760    0.52980    0.92760    1.000
    H50      H        0.89870    0.61210    0.92680    1.000
    C63      C        0.84920    0.46560    0.95824    1.000
    H51      H        0.80100    0.50590    0.97850    1.000
    N13      N        0.85580    0.34900    0.96155    1.000
    C64      C        0.15730    0.54520    0.79700    1.000
    H52      H        0.19540    0.50420    0.77410    1.000
    N14      N        0.16150    0.66170    0.79695    1.000
    C65      C        0.04400    0.66000    0.86162    1.000
    H53      H        0.00400    0.70330    0.88340    1.000
    C66      C        0.92890    0.29790    0.93371    1.000
    H54      H        0.93950    0.21610    0.93610    1.000
    C67      C        0.98980    0.35570    0.90183    1.000
    H55      H        0.03900    0.31300    0.88260    1.000
    C68      C        0.98090    0.47390    0.89719    1.000
    C69      C        0.10390    0.71710    0.82862    1.000
    H56      H        0.10390    0.79980    0.82850    1.000
    C70      C        0.04280    0.53850    0.86256    1.000
    C71      C        0.39930    0.01760    0.82851    1.000
    H57      H        0.39910    0.10030    0.82720    1.000
    C72      C        0.59240    0.97020    0.92760    1.000
    H58      H        0.60130    0.88790    0.92680    1.000
    C73      C        0.65080    0.03440    0.95824    1.000
    H59      H        0.69900    0.99410    0.97850    1.000
    N15      N        0.64420    0.15100    0.96155    1.000
    C74      C        0.34270    0.95480    0.79700    1.000
    H60      H        0.30460    0.99580    0.77410    1.000
    N16      N        0.33850    0.83830    0.79695    1.000
    C75      C        0.45600    0.84000    0.86162    1.000
    H61      H        0.49600    0.79670    0.88340    1.000
    C76      C        0.57110    0.20210    0.93371    1.000
    H62      H        0.56050    0.28390    0.93610    1.000
    C77      C        0.51020    0.14430    0.90183    1.000
    H63      H        0.46100    0.18700    0.88260    1.000
    C78      C        0.51910    0.02610    0.89719    1.000
    C79      C        0.39610    0.78290    0.82862    1.000
    H64      H        0.39610    0.70020    0.82850    1.000
    C80      C        0.45720    0.96150    0.86256    1.000
    Cu1      Cu       0.75000    0.25000    0.50000    1.000
    Cu2      Cu       0.75000    0.25000    0.00000    1.000
    Cu3      Cu       0.25000    0.75000    0.25000    1.000
    Cu4      Cu       0.25000    0.75000    0.75000    1.000
    C81      C        0.48240    0.10070    0.32851    1.000
    H65      H        0.39970    0.10090    0.32720    1.000
    C82      C        0.52980    0.90760    0.42760    1.000
    H66      H        0.61210    0.89870    0.42680    1.000
    C83      C        0.46560    0.84920    0.45824    1.000
    H67      H        0.50590    0.80100    0.47850    1.000
    N17      N        0.34900    0.85580    0.46155    1.000
    C84      C        0.54520    0.15730    0.29700    1.000
    H68      H        0.50420    0.19540    0.27410    1.000
    N18      N        0.66170    0.16150    0.29695    1.000
    C85      C        0.66000    0.04400    0.36162    1.000
    H69      H        0.70330    0.00400    0.38340    1.000
    C86      C        0.29790    0.92890    0.43371    1.000
    H70      H        0.21610    0.93950    0.43610    1.000
    C87      C        0.35570    0.98980    0.40183    1.000
    H71      H        0.31300    0.03900    0.38260    1.000
    C88      C        0.47390    0.98090    0.39719    1.000
    C89      C        0.71710    0.10390    0.32862    1.000
    H72      H        0.79980    0.10390    0.32850    1.000
    C90      C        0.53850    0.04280    0.36256    1.000
    C91      C        0.01760    0.39930    0.32851    1.000
    H73      H        0.10030    0.39910    0.32720    1.000
    C92      C        0.97020    0.59240    0.42760    1.000
    H74      H        0.88790    0.60130    0.42680    1.000
    C93      C        0.03440    0.65080    0.45824    1.000
    H75      H        0.99410    0.69900    0.47850    1.000
    N19      N        0.15100    0.64420    0.46155    1.000
    C94      C        0.95480    0.34270    0.29700    1.000
    H76      H        0.99580    0.30460    0.27410    1.000
    N20      N        0.83830    0.33850    0.29695    1.000
    C95      C        0.84000    0.45600    0.36162    1.000
    H77      H        0.79670    0.49600    0.38340    1.000
    C96      C        0.20210    0.57110    0.43371    1.000
    H78      H        0.28390    0.56050    0.43610    1.000
    C97      C        0.14430    0.51020    0.40183    1.000
    H79      H        0.18700    0.46100    0.38260    1.000
    C98      C        0.02610    0.51910    0.39719    1.000
    C99      C        0.78290    0.39610    0.32862    1.000
    H80      H        0.70020    0.39610    0.32850    1.000
    C100     C        0.96150    0.45720    0.36256    1.000
    C101     C        0.89930    0.51760    0.17149    1.000
    H81      H        0.89910    0.60030    0.17280    1.000
    C102     C        0.09240    0.47020    0.07240    1.000
    H82      H        0.10130    0.38790    0.07320    1.000
    C103     C        0.15080    0.53440    0.04176    1.000
    H83      H        0.19900    0.49410    0.02150    1.000
    N21      N        0.14420    0.65100    0.03845    1.000
    C104     C        0.84270    0.45480    0.20300    1.000
    H84      H        0.80460    0.49580    0.22590    1.000
    N22      N        0.83850    0.33830    0.20305    1.000
    C105     C        0.95600    0.34000    0.13838    1.000
    H85      H        0.99600    0.29670    0.11660    1.000
    C106     C        0.07110    0.70210    0.06629    1.000
    H86      H        0.06050    0.78390    0.06390    1.000
    C107     C        0.01020    0.64430    0.09817    1.000
    H87      H        0.96100    0.68700    0.11740    1.000
    C108     C        0.01910    0.52610    0.10281    1.000
    C109     C        0.89610    0.28290    0.17138    1.000
    H88      H        0.89610    0.20020    0.17150    1.000
    C110     C        0.95720    0.46150    0.13744    1.000
    C111     C        0.60070    0.98240    0.17149    1.000
    H89      H        0.60090    0.89970    0.17280    1.000
    C112     C        0.40760    0.02980    0.07240    1.000
    H90      H        0.39870    0.11210    0.07320    1.000
    C113     C        0.34920    0.96560    0.04176    1.000
    H91      H        0.30100    0.00590    0.02150    1.000
    N23      N        0.35580    0.84900    0.03845    1.000
    C114     C        0.65730    0.04520    0.20300    1.000
    H92      H        0.69540    0.00420    0.22590    1.000
    N24      N        0.66150    0.16170    0.20305    1.000
    C115     C        0.54400    0.16000    0.13838    1.000
    H93      H        0.50400    0.20330    0.11660    1.000
    C116     C        0.42890    0.79790    0.06629    1.000
    H94      H        0.43950    0.71610    0.06390    1.000
    C117     C        0.48980    0.85570    0.09817    1.000
    H95      H        0.53900    0.81300    0.11740    1.000
    C118     C        0.48090    0.97390    0.10281    1.000
    C119     C        0.60390    0.21710    0.17138    1.000
    H96      H        0.60390    0.29980    0.17150    1.000
    C120     C        0.54280    0.03850    0.13744    1.000
    C121     C        0.89930    0.98240    0.67149    1.000
    H97      H        0.89910    0.89970    0.67280    1.000
    C122     C        0.09240    0.02980    0.57240    1.000
    H98      H        0.10130    0.11210    0.57320    1.000
    C123     C        0.15080    0.96560    0.54176    1.000
    H99      H        0.19900    0.00590    0.52150    1.000
    N25      N        0.14420    0.84900    0.53845    1.000
    C124     C        0.84270    0.04520    0.70300    1.000
    H100     H        0.80460    0.00420    0.72590    1.000
    N26      N        0.83850    0.16170    0.70305    1.000
    C125     C        0.95600    0.16000    0.63838    1.000
    H101     H        0.99600    0.20330    0.61660    1.000
    C126     C        0.07110    0.79790    0.56629    1.000
    H102     H        0.06050    0.71610    0.56390    1.000
    C127     C        0.01020    0.85570    0.59817    1.000
    H103     H        0.96100    0.81300    0.61740    1.000
    C128     C        0.01910    0.97390    0.60281    1.000
    C129     C        0.89610    0.21710    0.67138    1.000
    H104     H        0.89610    0.29980    0.67150    1.000
    C130     C        0.95720    0.03850    0.63744    1.000
    C131     C        0.60070    0.51760    0.67149    1.000
    H105     H        0.60090    0.60030    0.67280    1.000
    C132     C        0.40760    0.47020    0.57240    1.000
    H106     H        0.39870    0.38790    0.57320    1.000
    C133     C        0.34920    0.53440    0.54176    1.000
    H107     H        0.30100    0.49410    0.52150    1.000
    N27      N        0.35580    0.65100    0.53845    1.000
    C134     C        0.65730    0.45480    0.70300    1.000
    H108     H        0.69540    0.49580    0.72590    1.000
    N28      N        0.66150    0.33830    0.70305    1.000
    C135     C        0.54400    0.34000    0.63838    1.000
    H109     H        0.50400    0.29670    0.61660    1.000
    C136     C        0.42890    0.70210    0.56629    1.000
    H110     H        0.43950    0.78390    0.56390    1.000
    C137     C        0.48980    0.64430    0.59817    1.000
    H111     H        0.53900    0.68700    0.61740    1.000
    C138     C        0.48090    0.52610    0.60281    1.000
    C139     C        0.60390    0.28290    0.67138    1.000
    H112     H        0.60390    0.20020    0.67150    1.000
    C140     C        0.54280    0.46150    0.63744    1.000
    C141     C        0.48240    0.39930    0.82851    1.000
    H113     H        0.39970    0.39910    0.82720    1.000
    C142     C        0.52980    0.59240    0.92760    1.000
    H114     H        0.61210    0.60130    0.92680    1.000
    C143     C        0.46560    0.65080    0.95824    1.000
    H115     H        0.50590    0.69900    0.97850    1.000
    N29      N        0.34900    0.64420    0.96155    1.000
    C144     C        0.54520    0.34270    0.79700    1.000
    H116     H        0.50420    0.30460    0.77410    1.000
    N30      N        0.66170    0.33850    0.79695    1.000
    C145     C        0.66000    0.45600    0.86162    1.000
    H117     H        0.70330    0.49600    0.88340    1.000
    C146     C        0.29790    0.57110    0.93371    1.000
    H118     H        0.21610    0.56050    0.93610    1.000
    C147     C        0.35570    0.51020    0.90183    1.000
    H119     H        0.31300    0.46100    0.88260    1.000
    C148     C        0.47390    0.51910    0.89719    1.000
    C149     C        0.71710    0.39610    0.82862    1.000
    H120     H        0.79980    0.39610    0.82850    1.000
    C150     C        0.53850    0.45720    0.86256    1.000
    C151     C        0.01760    0.10070    0.82851    1.000
    H121     H        0.10030    0.10090    0.82720    1.000
    C152     C        0.97020    0.90760    0.92760    1.000
    H122     H        0.88790    0.89870    0.92680    1.000
    C153     C        0.03440    0.84920    0.95824    1.000
    H123     H        0.99410    0.80100    0.97850    1.000
    N31      N        0.15100    0.85580    0.96155    1.000
    C154     C        0.95480    0.15730    0.79700    1.000
    H124     H        0.99580    0.19540    0.77410    1.000
    N32      N        0.83830    0.16150    0.79695    1.000
    C155     C        0.84000    0.04400    0.86162    1.000
    H125     H        0.79670    0.00400    0.88340    1.000
    C156     C        0.20210    0.92890    0.93371    1.000
    H126     H        0.28390    0.93950    0.93610    1.000
    C157     C        0.14430    0.98980    0.90183    1.000
    H127     H        0.18700    0.03900    0.88260    1.000
    C158     C        0.02610    0.98090    0.89719    1.000
    C159     C        0.78290    0.10390    0.82862    1.000
    H128     H        0.70020    0.10390    0.82850    1.000
    C160     C        0.96150    0.04280    0.86256    1.000
    Cu5      Cu       0.25000    0.75000    0.50000    1.000
    Cu6      Cu       0.25000    0.75000    0.00000    1.000
    Cu7      Cu       0.75000    0.25000    0.25000    1.000
    Cu8      Cu       0.75000    0.25000    0.75000    1.000
