# CIF file generated by openbabel 3.1.0, see https://openbabel.org
data_I
_chemical_name_common 'image0'
_cell_length_a 21.21
_cell_length_b 36.41
_cell_length_c 19.419
_cell_angle_alpha 90
_cell_angle_beta 94.425
_cell_angle_gamma 90
_space_group_name_H-M_alt 'P 1'
_space_group_name_Hall 'P 1'
loop_
    _symmetry_equiv_pos_as_xyz
    x,y,z
loop_
    _atom_site_label
    _atom_site_type_symbol
    _atom_site_fract_x
    _atom_site_fract_y
    _atom_site_fract_z
    _atom_site_occupancy
    C1       C        0.76020    0.54920    0.72320    1.000
    H1       H        0.79060    0.55510    0.75860    1.000
    C2       C        0.25200    0.20810    0.00780    1.000
    H2       H        0.21860    0.22110    0.02440    1.000
    C3       C        0.22870    0.18650    0.14940    1.000
    C4       C        0.26190    0.20756    0.93850    1.000
    H3       H        0.23470    0.22130    0.90880    1.000
    C5       C        0.34390    0.17030    0.02640    1.000
    H4       H        0.37370    0.15800    0.05540    1.000
    C6       C        0.29420    0.18827    0.05190    1.000
    C7       C        0.34790    0.17116    0.95730    1.000
    H5       H        0.38120    0.15850    0.93980    1.000
    C8       C        0.09860    0.21174    0.48020    1.000
    C9       C        0.04220    0.23407    0.48980    1.000
    C10      C        0.04650    0.27185    0.50060    1.000
    H6       H        0.08600    0.28310    0.50290    1.000
    C11      C        0.93380    0.27690    0.50580    1.000
    C12      C        0.99410    0.29261    0.50780    1.000
    H7       H        0.99840    0.31780    0.51410    1.000
    C13      C        0.37960    0.22678    0.54750    1.000
    C14      C        0.32500    0.20291    0.55250    1.000
    C15      C        0.46130    0.26560    0.60120    1.000
    H8       H        0.48070    0.27600    0.64110    1.000
    C16      C        0.16860    0.16967    0.31960    1.000
    H9       H        0.13470    0.15760    0.33710    1.000
    C17      C        0.17320    0.16967    0.24980    1.000
    H10      H        0.14230    0.15830    0.22070    1.000
    C18      C        0.53990    0.29786    0.53450    1.000
    C19      C        0.45400    0.25809    0.47960    1.000
    H11      H        0.46810    0.26350    0.43660    1.000
    C20      C        0.40980    0.24295    0.60610    1.000
    H12      H        0.39500    0.23840    0.64910    1.000
    C21      C        0.98330    0.21828    0.48470    1.000
    H13      H        0.97910    0.19340    0.47440    1.000
    C22      C        0.40250    0.23490    0.48350    1.000
    H14      H        0.38310    0.22470    0.44340    1.000
    C23      C        0.92910    0.23930    0.49500    1.000
    H15      H        0.88990    0.22790    0.49440    1.000
    C24      C        0.48460    0.27315    0.53750    1.000
    C25      C        0.64960    0.34031    0.52950    1.000
    C26      C        0.22400    0.18666    0.22290    1.000
    C27      C        0.25840    0.20362    0.33760    1.000
    H16      H        0.28800    0.21530    0.36800    1.000
    C28      C        0.26610    0.20506    0.26840    1.000
    H17      H        0.29930    0.21830    0.25210    1.000
    C29      C        0.87060    0.33511    0.49090    1.000
    H18      H        0.90460    0.34640    0.47190    1.000
    C30      C        0.75980    0.44152    0.63490    1.000
    H19      H        0.79170    0.44780    0.66830    1.000
    C31      C        0.76500    0.33918    0.52750    1.000
    C32      C        0.71580    0.50485    0.64210    1.000
    C33      C        0.58270    0.29213    0.48390    1.000
    H20      H        0.57430    0.27380    0.45110    1.000
    C34      C        0.87710    0.29888    0.51310    1.000
    C35      C        0.55180    0.32614    0.57720    1.000
    H21      H        0.52250    0.33180    0.60870    1.000
    C36      C        0.71240    0.39568    0.55750    1.000
    C37      C        0.63690    0.31288    0.48130    1.000
    H22      H        0.66460    0.30840    0.44740    1.000
    C38      C        0.71590    0.46694    0.61320    1.000
    C39      C        0.71750    0.57407    0.70260    1.000
    C40      C        0.75770    0.40591    0.60740    1.000
    H23      H        0.78790    0.38890    0.62360    1.000
    C41      C        0.71940    0.61180    0.73470    1.000
    C42      C        0.81480    0.35527    0.49590    1.000
    H24      H        0.81110    0.37900    0.47840    1.000
    C43      C        0.60700    0.34811    0.57680    1.000
    H25      H        0.61410    0.36730    0.60790    1.000
    C44      C        0.77100    0.30386    0.55200    1.000
    H26      H        0.73800    0.29330    0.57400    1.000
    C45      C        0.66810    0.42174    0.53420    1.000
    H27      H        0.63680    0.41550    0.50000    1.000
    C46      C        0.82500    0.28403    0.54470    1.000
    H28      H        0.82740    0.26000    0.56090    1.000
    C47      C        0.66990    0.45656    0.56070    1.000
    H29      H        0.64020    0.47370    0.54370    1.000
    C48      C        0.67790    0.53087    0.62070    1.000
    H30      H        0.64860    0.52600    0.58370    1.000
    C49      C        0.67830    0.56557    0.64990    1.000
    H31      H        0.65010    0.58320    0.63150    1.000
    C50      C        0.76120    0.51470    0.69400    1.000
    H32      H        0.79240    0.49800    0.70910    1.000
    N1       N        0.28520    0.18729    0.12370    1.000
    H33      H        0.31830    0.18720    0.15220    1.000
    N2       N        0.30715    0.18896    0.91151    1.000
    N3       N        0.21022    0.18612    0.36321    1.000
    N4       N        0.70859    0.35972    0.53080    1.000
    O1       O        0.09209    0.17962    0.45544    1.000
    O2       O        0.15239    0.22491    0.49492    1.000
    O3       O        0.16970    0.18412    0.10650    1.000
    O4       O        0.31352    0.19172    0.60925    1.000
    O5       O        0.29187    0.19528    0.49628    1.000
    O6       O        0.75731    0.61660    0.78648    1.000
    O7       O        0.68073    0.63398    0.70940    1.000
    Zn1      Zn       0.20285    0.18027    0.46871    1.000
    Zn2      Zn       0.25375    0.15330    0.63754    1.000
    C51      C        0.70310    0.29031    0.82320    1.000
    H34      H        0.70390    0.26820    0.84730    1.000
    C52      C        0.03000    0.27518    0.74800    1.000
    C53      C        0.13390    0.23035    0.73750    1.000
    C54      C        0.06080    0.25897    0.80610    1.000
    H35      H        0.04560    0.26300    0.84920    1.000
    C55      C        0.42180    0.21375    0.80010    1.000
    C56      C        0.10220    0.24486    0.67940    1.000
    H36      H        0.11500    0.23890    0.63600    1.000
    C57      C        0.19160    0.20561    0.73120    1.000
    C58      C        0.47870    0.23629    0.79460    1.000
    C59      C        0.11300    0.23719    0.80150    1.000
    H37      H        0.13400    0.22720    0.84100    1.000
    C60      C        0.47520    0.27426    0.78390    1.000
    H38      H        0.43580    0.28550    0.77830    1.000
    C61      C        0.05220    0.26786    0.68440    1.000
    H39      H        0.03290    0.27870    0.64480    1.000
    C62      C        0.97520    0.29966    0.75510    1.000
    C63      C        0.64840    0.30151    0.78970    1.000
    C64      C        0.52980    0.29558    0.78150    1.000
    H40      H        0.52670    0.32070    0.77350    1.000
    C65      C        0.87160    0.34310    0.77490    1.000
    C66      C        0.81730    0.39937    0.81660    1.000
    C67      C        0.58940    0.27874    0.79110    1.000
    C68      C        0.64790    0.33315    0.75460    1.000
    H41      H        0.61050    0.34110    0.73110    1.000
    C69      C        0.84400    0.57032    0.90020    1.000
    H42      H        0.85780    0.59020    0.87530    1.000
    C70      C        0.81800    0.57736    0.96000    1.000
    C71      C        0.86860    0.45745    0.83280    1.000
    H43      H        0.90130    0.47320    0.82360    1.000
    C72      C        0.92520    0.30064    0.70780    1.000
    H44      H        0.92630    0.28630    0.66830    1.000
    C73      C        0.97440    0.32219    0.81370    1.000
    H45      H        0.00910    0.32260    0.84600    1.000
    C74      C        0.75650    0.34249    0.78440    1.000
    C75      C        0.70250    0.35448    0.75260    1.000
    H46      H        0.70110    0.37680    0.72930    1.000
    C76      C        0.92200    0.34388    0.82350    1.000
    H47      H        0.92120    0.35870    0.86240    1.000
    C77      C        0.86510    0.42332    0.80190    1.000
    H48      H        0.89460    0.41650    0.77130    1.000
    C78      C        0.85150    0.53605    0.87400    1.000
    H49      H        0.87340    0.53240    0.83490    1.000
    C79      C        0.53850    0.22072    0.80150    1.000
    H50      H        0.54180    0.19540    0.80780    1.000
    C80      C        0.87190    0.32219    0.71530    1.000
    H51      H        0.83810    0.32250    0.68190    1.000
    C81      C        0.80700    0.61511    0.98390    1.000
    C82      C        0.59240    0.24068    0.79970    1.000
    H52      H        0.63140    0.22900    0.80410    1.000
    C83      C        0.79790    0.54875    0.99500    1.000
    H53      H        0.78100    0.55310    0.03700    1.000
    C84      C        0.82480    0.50612    0.90850    1.000
    C85      C        0.82420    0.46869    0.87720    1.000
    C86      C        0.77680    0.44457    0.88940    1.000
    H54      H        0.74600    0.45180    0.91820    1.000
    C87      C        0.80090    0.51213    0.97170    1.000
    H55      H        0.78740    0.49270    0.99800    1.000
    C88      C        0.77330    0.40985    0.86040    1.000
    H56      H        0.74110    0.39380    0.87050    1.000
    C89      C        0.75770    0.31042    0.82280    1.000
    H57      H        0.79460    0.30270    0.84770    1.000
    N5       N        0.81396    0.36425    0.78420    1.000
    O8       O        0.36816    0.22720    0.78071    1.000
    O9       O        0.22725    0.20162    0.78311    1.000
    O10      O        0.42656    0.18184    0.82351    1.000
    O11      O        0.19784    0.19160    0.67207    1.000
    O12      O        0.79916    0.62168    0.04469    1.000
    O13      O        0.80997    0.64196    0.94075    1.000
    Zn3      Zn       0.31476    0.18660    0.80838    1.000
    C90      C        0.23980    0.04920    0.77680    1.000
    H58      H        0.20940    0.05510    0.74140    1.000
    C91      C        0.74800    0.70810    0.49220    1.000
    H59      H        0.78140    0.72110    0.47560    1.000
    C92      C        0.77130    0.68650    0.35060    1.000
    C93      C        0.73810    0.70756    0.56150    1.000
    H60      H        0.76530    0.72130    0.59120    1.000
    C94      C        0.65610    0.67030    0.47360    1.000
    H61      H        0.62630    0.65800    0.44460    1.000
    C95      C        0.70580    0.68827    0.44810    1.000
    C96      C        0.65210    0.67116    0.54270    1.000
    H62      H        0.61880    0.65850    0.56020    1.000
    C97      C        0.90140    0.71174    0.01980    1.000
    C98      C        0.95780    0.73407    0.01020    1.000
    C99      C        0.95350    0.77185    0.99940    1.000
    H63      H        0.91400    0.78310    0.99710    1.000
    C100     C        0.06620    0.77690    0.99420    1.000
    C101     C        0.00590    0.79261    0.99220    1.000
    H64      H        0.00160    0.81780    0.98590    1.000
    C102     C        0.62040    0.72678    0.95250    1.000
    C103     C        0.67500    0.70291    0.94750    1.000
    C104     C        0.53870    0.76560    0.89880    1.000
    H65      H        0.51930    0.77600    0.85890    1.000
    C105     C        0.83140    0.66967    0.18040    1.000
    H66      H        0.86530    0.65760    0.16290    1.000
    C106     C        0.82680    0.66967    0.25020    1.000
    H67      H        0.85770    0.65830    0.27930    1.000
    C107     C        0.46010    0.79786    0.96550    1.000
    C108     C        0.54600    0.75809    0.02040    1.000
    H68      H        0.53190    0.76350    0.06340    1.000
    C109     C        0.59020    0.74295    0.89390    1.000
    H69      H        0.60500    0.73840    0.85090    1.000
    C110     C        0.01670    0.71828    0.01530    1.000
    H70      H        0.02090    0.69340    0.02560    1.000
    C111     C        0.59750    0.73490    0.01650    1.000
    H71      H        0.61690    0.72470    0.05660    1.000
    C112     C        0.07090    0.73930    0.00500    1.000
    H72      H        0.11010    0.72790    0.00560    1.000
    C113     C        0.51540    0.77315    0.96250    1.000
    C114     C        0.35040    0.84031    0.97050    1.000
    C115     C        0.77600    0.68666    0.27710    1.000
    C116     C        0.74160    0.70362    0.16240    1.000
    H73      H        0.71200    0.71530    0.13200    1.000
    C117     C        0.73390    0.70506    0.23160    1.000
    H74      H        0.70070    0.71830    0.24790    1.000
    C118     C        0.12940    0.83511    0.00910    1.000
    H75      H        0.09540    0.84640    0.02810    1.000
    C119     C        0.24020    0.94152    0.86510    1.000
    H76      H        0.20830    0.94780    0.83170    1.000
    C120     C        0.23500    0.83918    0.97250    1.000
    C121     C        0.28420    0.00485    0.85790    1.000
    C122     C        0.41730    0.79213    0.01610    1.000
    H77      H        0.42570    0.77380    0.04890    1.000
    C123     C        0.12290    0.79888    0.98690    1.000
    C124     C        0.44820    0.82614    0.92280    1.000
    H78      H        0.47750    0.83180    0.89130    1.000
    C125     C        0.28760    0.89568    0.94250    1.000
    C126     C        0.36310    0.81288    0.01870    1.000
    H79      H        0.33540    0.80840    0.05260    1.000
    C127     C        0.28410    0.96694    0.88680    1.000
    C128     C        0.28250    0.07407    0.79740    1.000
    C129     C        0.24230    0.90591    0.89260    1.000
    H80      H        0.21210    0.88890    0.87640    1.000
    C130     C        0.28060    0.11180    0.76530    1.000
    C131     C        0.18520    0.85527    0.00410    1.000
    H81      H        0.18890    0.87900    0.02160    1.000
    C132     C        0.39300    0.84811    0.92320    1.000
    H82      H        0.38590    0.86730    0.89210    1.000
    C133     C        0.22900    0.80386    0.94800    1.000
    H83      H        0.26200    0.79330    0.92600    1.000
    C134     C        0.33190    0.92174    0.96580    1.000
    H84      H        0.36320    0.91550    0.00000    1.000
    C135     C        0.17500    0.78403    0.95530    1.000
    H85      H        0.17260    0.76000    0.93910    1.000
    C136     C        0.33010    0.95656    0.93930    1.000
    H86      H        0.35980    0.97370    0.95630    1.000
    C137     C        0.32210    0.03087    0.87930    1.000
    H87      H        0.35140    0.02600    0.91630    1.000
    C138     C        0.32170    0.06557    0.85010    1.000
    H88      H        0.34990    0.08320    0.86850    1.000
    C139     C        0.23880    0.01470    0.80600    1.000
    H89      H        0.20760    0.99800    0.79090    1.000
    N6       N        0.71480    0.68729    0.37630    1.000
    H90      H        0.68170    0.68720    0.34780    1.000
    N7       N        0.69285    0.68896    0.58849    1.000
    N8       N        0.78978    0.68612    0.13679    1.000
    N9       N        0.29141    0.85972    0.96920    1.000
    O14      O        0.90791    0.67962    0.04456    1.000
    O15      O        0.84761    0.72491    0.00508    1.000
    O16      O        0.83030    0.68412    0.39350    1.000
    O17      O        0.68648    0.69172    0.89075    1.000
    O18      O        0.70813    0.69528    0.00372    1.000
    O19      O        0.24269    0.11660    0.71352    1.000
    O20      O        0.31927    0.13398    0.79060    1.000
    Zn4      Zn       0.79715    0.68027    0.03129    1.000
    Zn5      Zn       0.74625    0.65330    0.86246    1.000
    C140     C        0.29690    0.79031    0.67680    1.000
    H91      H        0.29610    0.76820    0.65270    1.000
    C141     C        0.97000    0.77518    0.75200    1.000
    C142     C        0.86610    0.73035    0.76250    1.000
    C143     C        0.93920    0.75897    0.69390    1.000
    H92      H        0.95440    0.76300    0.65080    1.000
    C144     C        0.57820    0.71375    0.69990    1.000
    C145     C        0.89780    0.74486    0.82060    1.000
    H93      H        0.88500    0.73890    0.86400    1.000
    C146     C        0.80840    0.70561    0.76880    1.000
    C147     C        0.52130    0.73629    0.70540    1.000
    C148     C        0.88700    0.73719    0.69850    1.000
    H94      H        0.86600    0.72720    0.65900    1.000
    C149     C        0.52480    0.77426    0.71610    1.000
    H95      H        0.56420    0.78550    0.72170    1.000
    C150     C        0.94780    0.76786    0.81560    1.000
    H96      H        0.96710    0.77870    0.85520    1.000
    C151     C        0.02480    0.79966    0.74490    1.000
    C152     C        0.35160    0.80151    0.71030    1.000
    C153     C        0.47020    0.79558    0.71850    1.000
    H97      H        0.47330    0.82070    0.72650    1.000
    C154     C        0.12840    0.84310    0.72510    1.000
    C155     C        0.18270    0.89937    0.68340    1.000
    C156     C        0.41060    0.77874    0.70890    1.000
    C157     C        0.35210    0.83315    0.74540    1.000
    H98      H        0.38950    0.84110    0.76890    1.000
    C158     C        0.15600    0.07032    0.59980    1.000
    H99      H        0.14220    0.09020    0.62470    1.000
    C159     C        0.18200    0.07736    0.54000    1.000
    C160     C        0.13140    0.95745    0.66720    1.000
    H100     H        0.09870    0.97320    0.67640    1.000
    C161     C        0.07480    0.80064    0.79220    1.000
    H101     H        0.07370    0.78630    0.83170    1.000
    C162     C        0.02560    0.82219    0.68630    1.000
    H102     H        0.99090    0.82260    0.65400    1.000
    C163     C        0.24350    0.84249    0.71560    1.000
    C164     C        0.29750    0.85448    0.74740    1.000
    H103     H        0.29890    0.87680    0.77070    1.000
    C165     C        0.07800    0.84388    0.67650    1.000
    H104     H        0.07880    0.85870    0.63760    1.000
    C166     C        0.13490    0.92332    0.69810    1.000
    H105     H        0.10540    0.91650    0.72870    1.000
    C167     C        0.14850    0.03605    0.62600    1.000
    H106     H        0.12660    0.03240    0.66510    1.000
    C168     C        0.46150    0.72072    0.69850    1.000
    H107     H        0.45820    0.69540    0.69220    1.000
    C169     C        0.12810    0.82219    0.78470    1.000
    H108     H        0.16190    0.82250    0.81810    1.000
    C170     C        0.19300    0.11511    0.51610    1.000
    C171     C        0.40760    0.74068    0.70030    1.000
    H109     H        0.36860    0.72900    0.69590    1.000
    C172     C        0.20210    0.04875    0.50500    1.000
    H110     H        0.21900    0.05310    0.46300    1.000
    C173     C        0.17520    0.00612    0.59150    1.000
    C174     C        0.17580    0.96869    0.62280    1.000
    C175     C        0.22320    0.94457    0.61060    1.000
    H111     H        0.25400    0.95180    0.58180    1.000
    C176     C        0.19910    0.01213    0.52830    1.000
    H112     H        0.21260    0.99270    0.50200    1.000
    C177     C        0.22670    0.90985    0.63960    1.000
    H113     H        0.25890    0.89380    0.62950    1.000
    C178     C        0.24230    0.81042    0.67720    1.000
    H114     H        0.20540    0.80270    0.65230    1.000
    N10      N        0.18604    0.86425    0.71580    1.000
    O21      O        0.63184    0.72720    0.71929    1.000
    O22      O        0.77275    0.70162    0.71689    1.000
    O23      O        0.57344    0.68184    0.67649    1.000
    O24      O        0.80216    0.69160    0.82793    1.000
    O25      O        0.20084    0.12168    0.45531    1.000
    O26      O        0.19003    0.14196    0.55925    1.000
    Zn6      Zn       0.68524    0.68660    0.69162    1.000
    C179     C        0.23980    0.45080    0.27680    1.000
    H115     H        0.20940    0.44490    0.24140    1.000
    C180     C        0.74800    0.79190    0.99220    1.000
    H116     H        0.78140    0.77890    0.97560    1.000
    C181     C        0.77130    0.81350    0.85060    1.000
    C182     C        0.73810    0.79244    0.06150    1.000
    H117     H        0.76530    0.77870    0.09120    1.000
    C183     C        0.65610    0.82970    0.97360    1.000
    H118     H        0.62630    0.84200    0.94460    1.000
    C184     C        0.70580    0.81173    0.94810    1.000
    C185     C        0.65210    0.82884    0.04270    1.000
    H119     H        0.61880    0.84150    0.06020    1.000
    C186     C        0.90140    0.78826    0.51980    1.000
    C187     C        0.95780    0.76593    0.51020    1.000
    C188     C        0.95350    0.72815    0.49940    1.000
    H120     H        0.91400    0.71690    0.49710    1.000
    C189     C        0.06620    0.72310    0.49420    1.000
    C190     C        0.00590    0.70739    0.49220    1.000
    H121     H        0.00160    0.68220    0.48590    1.000
    C191     C        0.62040    0.77322    0.45250    1.000
    C192     C        0.67500    0.79709    0.44750    1.000
    C193     C        0.53870    0.73440    0.39880    1.000
    H122     H        0.51930    0.72400    0.35890    1.000
    C194     C        0.83140    0.83033    0.68040    1.000
    H123     H        0.86530    0.84240    0.66290    1.000
    C195     C        0.82680    0.83033    0.75020    1.000
    H124     H        0.85770    0.84170    0.77930    1.000
    C196     C        0.46010    0.70214    0.46550    1.000
    C197     C        0.54600    0.74191    0.52040    1.000
    H125     H        0.53190    0.73650    0.56340    1.000
    C198     C        0.59020    0.75705    0.39390    1.000
    H126     H        0.60500    0.76160    0.35090    1.000
    C199     C        0.01670    0.78172    0.51530    1.000
    H127     H        0.02090    0.80660    0.52560    1.000
    C200     C        0.59750    0.76510    0.51650    1.000
    H128     H        0.61690    0.77530    0.55660    1.000
    C201     C        0.07090    0.76070    0.50500    1.000
    H129     H        0.11010    0.77210    0.50560    1.000
    C202     C        0.51540    0.72685    0.46250    1.000
    C203     C        0.35040    0.65969    0.47050    1.000
    C204     C        0.77600    0.81334    0.77710    1.000
    C205     C        0.74160    0.79638    0.66240    1.000
    H130     H        0.71200    0.78470    0.63200    1.000
    C206     C        0.73390    0.79494    0.73160    1.000
    H131     H        0.70070    0.78170    0.74790    1.000
    C207     C        0.12940    0.66489    0.50910    1.000
    H132     H        0.09540    0.65360    0.52810    1.000
    C208     C        0.24020    0.55848    0.36510    1.000
    H133     H        0.20830    0.55220    0.33170    1.000
    C209     C        0.23500    0.66082    0.47250    1.000
    C210     C        0.28420    0.49515    0.35790    1.000
    C211     C        0.41730    0.70787    0.51610    1.000
    H134     H        0.42570    0.72620    0.54890    1.000
    C212     C        0.12290    0.70112    0.48690    1.000
    C213     C        0.44820    0.67386    0.42280    1.000
    H135     H        0.47750    0.66820    0.39130    1.000
    C214     C        0.28760    0.60432    0.44250    1.000
    C215     C        0.36310    0.68712    0.51870    1.000
    H136     H        0.33540    0.69160    0.55260    1.000
    C216     C        0.28410    0.53306    0.38680    1.000
    C217     C        0.28250    0.42593    0.29740    1.000
    C218     C        0.24230    0.59409    0.39260    1.000
    H137     H        0.21210    0.61110    0.37640    1.000
    C219     C        0.28060    0.38820    0.26530    1.000
    C220     C        0.18520    0.64473    0.50410    1.000
    H138     H        0.18890    0.62100    0.52160    1.000
    C221     C        0.39300    0.65189    0.42320    1.000
    H139     H        0.38590    0.63270    0.39210    1.000
    C222     C        0.22900    0.69614    0.44800    1.000
    H140     H        0.26200    0.70670    0.42600    1.000
    C223     C        0.33190    0.57826    0.46580    1.000
    H141     H        0.36320    0.58450    0.50000    1.000
    C224     C        0.17500    0.71597    0.45530    1.000
    H142     H        0.17260    0.74000    0.43910    1.000
    C225     C        0.33010    0.54344    0.43930    1.000
    H143     H        0.35980    0.52630    0.45630    1.000
    C226     C        0.32210    0.46913    0.37930    1.000
    H144     H        0.35140    0.47400    0.41630    1.000
    C227     C        0.32170    0.43443    0.35010    1.000
    H145     H        0.34990    0.41680    0.36850    1.000
    C228     C        0.23880    0.48530    0.30600    1.000
    H146     H        0.20760    0.50200    0.29090    1.000
    N11      N        0.71480    0.81271    0.87630    1.000
    H147     H        0.68170    0.81280    0.84780    1.000
    N12      N        0.69285    0.81104    0.08849    1.000
    N13      N        0.78978    0.81388    0.63679    1.000
    N14      N        0.29141    0.64028    0.46920    1.000
    O27      O        0.90791    0.82038    0.54456    1.000
    O28      O        0.84761    0.77509    0.50508    1.000
    O29      O        0.83030    0.81588    0.89350    1.000
    O30      O        0.68648    0.80828    0.39075    1.000
    O31      O        0.70813    0.80472    0.50372    1.000
    O32      O        0.24269    0.38340    0.21352    1.000
    O33      O        0.31927    0.36602    0.29060    1.000
    Zn7      Zn       0.79715    0.81973    0.53129    1.000
    Zn8      Zn       0.74625    0.84670    0.36246    1.000
    C229     C        0.29690    0.70969    0.17680    1.000
    H148     H        0.29610    0.73180    0.15270    1.000
    C230     C        0.97000    0.72482    0.25200    1.000
    C231     C        0.86610    0.76965    0.26250    1.000
    C232     C        0.93920    0.74103    0.19390    1.000
    H149     H        0.95440    0.73700    0.15080    1.000
    C233     C        0.57820    0.78625    0.19990    1.000
    C234     C        0.89780    0.75514    0.32060    1.000
    H150     H        0.88500    0.76110    0.36400    1.000
    C235     C        0.80840    0.79439    0.26880    1.000
    C236     C        0.52130    0.76371    0.20540    1.000
    C237     C        0.88700    0.76281    0.19850    1.000
    H151     H        0.86600    0.77280    0.15900    1.000
    C238     C        0.52480    0.72574    0.21610    1.000
    H152     H        0.56420    0.71450    0.22170    1.000
    C239     C        0.94780    0.73214    0.31560    1.000
    H153     H        0.96710    0.72130    0.35520    1.000
    C240     C        0.02480    0.70034    0.24490    1.000
    C241     C        0.35160    0.69849    0.21030    1.000
    C242     C        0.47020    0.70442    0.21850    1.000
    H154     H        0.47330    0.67930    0.22650    1.000
    C243     C        0.12840    0.65690    0.22510    1.000
    C244     C        0.18270    0.60063    0.18340    1.000
    C245     C        0.41060    0.72126    0.20890    1.000
    C246     C        0.35210    0.66685    0.24540    1.000
    H155     H        0.38950    0.65890    0.26890    1.000
    C247     C        0.15600    0.42968    0.09980    1.000
    H156     H        0.14220    0.40980    0.12470    1.000
    C248     C        0.18200    0.42264    0.04000    1.000
    C249     C        0.13140    0.54255    0.16720    1.000
    H157     H        0.09870    0.52680    0.17640    1.000
    C250     C        0.07480    0.69936    0.29220    1.000
    H158     H        0.07370    0.71370    0.33170    1.000
    C251     C        0.02560    0.67781    0.18630    1.000
    H159     H        0.99090    0.67740    0.15400    1.000
    C252     C        0.24350    0.65751    0.21560    1.000
    C253     C        0.29750    0.64552    0.24740    1.000
    H160     H        0.29890    0.62320    0.27070    1.000
    C254     C        0.07800    0.65612    0.17650    1.000
    H161     H        0.07880    0.64130    0.13760    1.000
    C255     C        0.13490    0.57668    0.19810    1.000
    H162     H        0.10540    0.58350    0.22870    1.000
    C256     C        0.14850    0.46395    0.12600    1.000
    H163     H        0.12660    0.46760    0.16510    1.000
    C257     C        0.46150    0.77928    0.19850    1.000
    H164     H        0.45820    0.80460    0.19220    1.000
    C258     C        0.12810    0.67781    0.28470    1.000
    H165     H        0.16190    0.67750    0.31810    1.000
    C259     C        0.19300    0.38489    0.01610    1.000
    C260     C        0.40760    0.75932    0.20030    1.000
    H166     H        0.36860    0.77100    0.19590    1.000
    C261     C        0.20210    0.45125    0.00500    1.000
    H167     H        0.21900    0.44690    0.96300    1.000
    C262     C        0.17520    0.49388    0.09150    1.000
    C263     C        0.17580    0.53131    0.12280    1.000
    C264     C        0.22320    0.55543    0.11060    1.000
    H168     H        0.25400    0.54820    0.08180    1.000
    C265     C        0.19910    0.48787    0.02830    1.000
    H169     H        0.21260    0.50730    0.00200    1.000
    C266     C        0.22670    0.59015    0.13960    1.000
    H170     H        0.25890    0.60620    0.12950    1.000
    C267     C        0.24230    0.68958    0.17720    1.000
    H171     H        0.20540    0.69730    0.15230    1.000
    N15      N        0.18604    0.63575    0.21580    1.000
    O34      O        0.63184    0.77280    0.21929    1.000
    O35      O        0.77275    0.79838    0.21689    1.000
    O36      O        0.57344    0.81816    0.17649    1.000
    O37      O        0.80216    0.80840    0.32793    1.000
    O38      O        0.20084    0.37832    0.95531    1.000
    O39      O        0.19003    0.35804    0.05925    1.000
    Zn9      Zn       0.68524    0.81340    0.19162    1.000
    C268     C        0.76020    0.95080    0.22320    1.000
    H172     H        0.79060    0.94490    0.25860    1.000
    C269     C        0.25200    0.29190    0.50780    1.000
    H173     H        0.21860    0.27890    0.52440    1.000
    C270     C        0.22870    0.31350    0.64940    1.000
    C271     C        0.26190    0.29244    0.43850    1.000
    H174     H        0.23470    0.27870    0.40880    1.000
    C272     C        0.34390    0.32970    0.52640    1.000
    H175     H        0.37370    0.34200    0.55540    1.000
    C273     C        0.29420    0.31173    0.55190    1.000
    C274     C        0.34790    0.32884    0.45730    1.000
    H176     H        0.38120    0.34150    0.43980    1.000
    C275     C        0.09860    0.28826    0.98020    1.000
    C276     C        0.04220    0.26593    0.98980    1.000
    C277     C        0.04650    0.22815    0.00060    1.000
    H177     H        0.08600    0.21690    0.00290    1.000
    C278     C        0.93380    0.22310    0.00580    1.000
    C279     C        0.99410    0.20739    0.00780    1.000
    H178     H        0.99840    0.18220    0.01410    1.000
    C280     C        0.37960    0.27322    0.04750    1.000
    C281     C        0.32500    0.29709    0.05250    1.000
    C282     C        0.46130    0.23440    0.10120    1.000
    H179     H        0.48070    0.22400    0.14110    1.000
    C283     C        0.16860    0.33033    0.81960    1.000
    H180     H        0.13470    0.34240    0.83710    1.000
    C284     C        0.17320    0.33033    0.74980    1.000
    H181     H        0.14230    0.34170    0.72070    1.000
    C285     C        0.53990    0.20214    0.03450    1.000
    C286     C        0.45400    0.24191    0.97960    1.000
    H182     H        0.46810    0.23650    0.93660    1.000
    C287     C        0.40980    0.25705    0.10610    1.000
    H183     H        0.39500    0.26160    0.14910    1.000
    C288     C        0.98330    0.28172    0.98470    1.000
    H184     H        0.97910    0.30660    0.97440    1.000
    C289     C        0.40250    0.26510    0.98350    1.000
    H185     H        0.38310    0.27530    0.94340    1.000
    C290     C        0.92910    0.26070    0.99500    1.000
    H186     H        0.88990    0.27210    0.99440    1.000
    C291     C        0.48460    0.22685    0.03750    1.000
    C292     C        0.64960    0.15969    0.02950    1.000
    C293     C        0.22400    0.31334    0.72290    1.000
    C294     C        0.25840    0.29638    0.83760    1.000
    H187     H        0.28800    0.28470    0.86800    1.000
    C295     C        0.26610    0.29494    0.76840    1.000
    H188     H        0.29930    0.28170    0.75210    1.000
    C296     C        0.87060    0.16489    0.99090    1.000
    H189     H        0.90460    0.15360    0.97190    1.000
    C297     C        0.75980    0.05848    0.13490    1.000
    H190     H        0.79170    0.05220    0.16830    1.000
    C298     C        0.76500    0.16082    0.02750    1.000
    C299     C        0.71580    0.99515    0.14210    1.000
    C300     C        0.58270    0.20787    0.98390    1.000
    H191     H        0.57430    0.22620    0.95110    1.000
    C301     C        0.87710    0.20112    0.01310    1.000
    C302     C        0.55180    0.17386    0.07720    1.000
    H192     H        0.52250    0.16820    0.10870    1.000
    C303     C        0.71240    0.10432    0.05750    1.000
    C304     C        0.63690    0.18712    0.98130    1.000
    H193     H        0.66460    0.19160    0.94740    1.000
    C305     C        0.71590    0.03306    0.11320    1.000
    C306     C        0.71750    0.92593    0.20260    1.000
    C307     C        0.75770    0.09409    0.10740    1.000
    H194     H        0.78790    0.11110    0.12360    1.000
    C308     C        0.71940    0.88820    0.23470    1.000
    C309     C        0.81480    0.14473    0.99590    1.000
    H195     H        0.81110    0.12100    0.97840    1.000
    C310     C        0.60700    0.15189    0.07680    1.000
    H196     H        0.61410    0.13270    0.10790    1.000
    C311     C        0.77100    0.19614    0.05200    1.000
    H197     H        0.73800    0.20670    0.07400    1.000
    C312     C        0.66810    0.07826    0.03420    1.000
    H198     H        0.63680    0.08450    0.00000    1.000
    C313     C        0.82500    0.21597    0.04470    1.000
    H199     H        0.82740    0.24000    0.06090    1.000
    C314     C        0.66990    0.04344    0.06070    1.000
    H200     H        0.64020    0.02630    0.04370    1.000
    C315     C        0.67790    0.96913    0.12070    1.000
    H201     H        0.64860    0.97400    0.08370    1.000
    C316     C        0.67830    0.93443    0.14990    1.000
    H202     H        0.65010    0.91680    0.13150    1.000
    C317     C        0.76120    0.98530    0.19400    1.000
    H203     H        0.79240    0.00200    0.20910    1.000
    N16      N        0.28520    0.31271    0.62370    1.000
    H204     H        0.31830    0.31280    0.65220    1.000
    N17      N        0.30715    0.31104    0.41151    1.000
    N18      N        0.21022    0.31388    0.86321    1.000
    N19      N        0.70859    0.14028    0.03080    1.000
    O40      O        0.09209    0.32038    0.95544    1.000
    O41      O        0.15239    0.27509    0.99492    1.000
    O42      O        0.16970    0.31588    0.60650    1.000
    O43      O        0.31352    0.30828    0.10925    1.000
    O44      O        0.29187    0.30472    0.99628    1.000
    O45      O        0.75731    0.88340    0.28648    1.000
    O46      O        0.68073    0.86602    0.20940    1.000
    Zn10     Zn       0.20285    0.31973    0.96871    1.000
    Zn11     Zn       0.25375    0.34670    0.13754    1.000
    C318     C        0.70310    0.20969    0.32320    1.000
    H205     H        0.70390    0.23180    0.34730    1.000
    C319     C        0.03000    0.22482    0.24800    1.000
    C320     C        0.13390    0.26965    0.23750    1.000
    C321     C        0.06080    0.24103    0.30610    1.000
    H206     H        0.04560    0.23700    0.34920    1.000
    C322     C        0.42180    0.28625    0.30010    1.000
    C323     C        0.10220    0.25514    0.17940    1.000
    H207     H        0.11500    0.26110    0.13600    1.000
    C324     C        0.19160    0.29439    0.23120    1.000
    C325     C        0.47870    0.26371    0.29460    1.000
    C326     C        0.11300    0.26281    0.30150    1.000
    H208     H        0.13400    0.27280    0.34100    1.000
    C327     C        0.47520    0.22574    0.28390    1.000
    H209     H        0.43580    0.21450    0.27830    1.000
    C328     C        0.05220    0.23214    0.18440    1.000
    H210     H        0.03290    0.22130    0.14480    1.000
    C329     C        0.97520    0.20034    0.25510    1.000
    C330     C        0.64840    0.19849    0.28970    1.000
    C331     C        0.52980    0.20442    0.28150    1.000
    H211     H        0.52670    0.17930    0.27350    1.000
    C332     C        0.87160    0.15690    0.27490    1.000
    C333     C        0.81730    0.10063    0.31660    1.000
    C334     C        0.58940    0.22126    0.29110    1.000
    C335     C        0.64790    0.16685    0.25460    1.000
    H212     H        0.61050    0.15890    0.23110    1.000
    C336     C        0.84400    0.92968    0.40020    1.000
    H213     H        0.85780    0.90980    0.37530    1.000
    C337     C        0.81800    0.92264    0.46000    1.000
    C338     C        0.86860    0.04255    0.33280    1.000
    H214     H        0.90130    0.02680    0.32360    1.000
    C339     C        0.92520    0.19936    0.20780    1.000
    H215     H        0.92630    0.21370    0.16830    1.000
    C340     C        0.97440    0.17781    0.31370    1.000
    H216     H        0.00910    0.17740    0.34600    1.000
    C341     C        0.75650    0.15751    0.28440    1.000
    C342     C        0.70250    0.14552    0.25260    1.000
    H217     H        0.70110    0.12320    0.22930    1.000
    C343     C        0.92200    0.15612    0.32350    1.000
    H218     H        0.92120    0.14130    0.36240    1.000
    C344     C        0.86510    0.07668    0.30190    1.000
    H219     H        0.89460    0.08350    0.27130    1.000
    C345     C        0.85150    0.96395    0.37400    1.000
    H220     H        0.87340    0.96760    0.33490    1.000
    C346     C        0.53850    0.27928    0.30150    1.000
    H221     H        0.54180    0.30460    0.30780    1.000
    C347     C        0.87190    0.17781    0.21530    1.000
    H222     H        0.83810    0.17750    0.18190    1.000
    C348     C        0.80700    0.88489    0.48390    1.000
    C349     C        0.59240    0.25932    0.29970    1.000
    H223     H        0.63140    0.27100    0.30410    1.000
    C350     C        0.79790    0.95125    0.49500    1.000
    H224     H        0.78100    0.94690    0.53700    1.000
    C351     C        0.82480    0.99388    0.40850    1.000
    C352     C        0.82420    0.03131    0.37720    1.000
    C353     C        0.77680    0.05543    0.38940    1.000
    H225     H        0.74600    0.04820    0.41820    1.000
    C354     C        0.80090    0.98787    0.47170    1.000
    H226     H        0.78740    0.00730    0.49800    1.000
    C355     C        0.77330    0.09015    0.36040    1.000
    H227     H        0.74110    0.10620    0.37050    1.000
    C356     C        0.75770    0.18958    0.32280    1.000
    H228     H        0.79460    0.19730    0.34770    1.000
    N20      N        0.81396    0.13575    0.28420    1.000
    O47      O        0.36816    0.27280    0.28071    1.000
    O48      O        0.22725    0.29838    0.28311    1.000
    O49      O        0.42656    0.31816    0.32351    1.000
    O50      O        0.19784    0.30840    0.17207    1.000
    O51      O        0.79916    0.87832    0.54469    1.000
    O52      O        0.80997    0.85804    0.44075    1.000
    Zn12     Zn       0.31476    0.31340    0.30838    1.000
