# CIF file generated by openbabel 3.1.0, see https://openbabel.org
data_I
_chemical_name_common 'image0'
_cell_length_a 10.0355
_cell_length_b 12.819
_cell_length_c 15.4797
_cell_angle_alpha 90
_cell_angle_beta 102.486
_cell_angle_gamma 90
_space_group_name_H-M_alt 'P 1'
_space_group_name_Hall 'P 1'
loop_
    _symmetry_equiv_pos_as_xyz
    x,y,z
loop_
    _atom_site_label
    _atom_site_type_symbol
    _atom_site_fract_x
    _atom_site_fract_y
    _atom_site_fract_z
    _atom_site_occupancy
    Cd1      Cd       0.17871    0.96605    0.09169    1.000
    O1       O        0.37865    0.91392    0.04833    1.000
    O2       O        0.34864    0.84479    0.17227    1.000
    O3       O        0.68834    0.59953    0.33390    1.000
    O4       O        0.87489    0.56568    0.29086    1.000
    O5       O        0.02586    0.84566    0.10373    1.000
    O6       O        0.87987    0.96875    0.04562    1.000
    C1       C        0.42126    0.86164    0.11735    1.000
    C2       C        0.56325    0.81975    0.13488    1.000
    C3       C        0.66295    0.86377    0.09504    1.000
    H1       H        0.63970    0.91740    0.05410    1.000
    C4       C        0.79671    0.82729    0.11684    1.000
    C5       C        0.82932    0.74369    0.17529    1.000
    H2       H        0.91760    0.71710    0.18750    1.000
    C6       C        0.73233    0.69990    0.21532    1.000
    C7       C        0.59954    0.73883    0.19510    1.000
    H3       H        0.53410    0.71020    0.22240    1.000
    C8       C        0.76801    0.61584    0.28373    1.000
    C9       C        0.90688    0.88357    0.08424    1.000
    Cd2      Cd       0.82129    0.46605    0.40832    1.000
    O7       O        0.62135    0.41392    0.45167    1.000
    O8       O        0.65136    0.34479    0.32773    1.000
    O9       O        0.31166    0.09953    0.16610    1.000
    O10      O        0.12511    0.06568    0.20914    1.000
    O11      O        0.97414    0.34566    0.39627    1.000
    O12      O        0.12013    0.46875    0.45438    1.000
    C10      C        0.57874    0.36164    0.38265    1.000
    C11      C        0.43675    0.31975    0.36512    1.000
    C12      C        0.33705    0.36377    0.40496    1.000
    H4       H        0.36030    0.41740    0.44590    1.000
    C13      C        0.20329    0.32729    0.38316    1.000
    C14      C        0.17068    0.24369    0.32471    1.000
    H5       H        0.08240    0.21710    0.31250    1.000
    C15      C        0.26767    0.19990    0.28468    1.000
    C16      C        0.40046    0.23883    0.30490    1.000
    H6       H        0.46590    0.21020    0.27760    1.000
    C17      C        0.23199    0.11584    0.21627    1.000
    C18      C        0.09312    0.38357    0.41576    1.000
    Cd3      Cd       0.82129    0.03395    0.90832    1.000
    O13      O        0.62135    0.08608    0.95167    1.000
    O14      O        0.65136    0.15521    0.82773    1.000
    O15      O        0.31166    0.40047    0.66610    1.000
    O16      O        0.12511    0.43432    0.70914    1.000
    O17      O        0.97414    0.15434    0.89627    1.000
    O18      O        0.12013    0.03125    0.95438    1.000
    C19      C        0.57874    0.13836    0.88265    1.000
    C20      C        0.43675    0.18025    0.86512    1.000
    C21      C        0.33705    0.13623    0.90496    1.000
    H7       H        0.36030    0.08260    0.94590    1.000
    C22      C        0.20329    0.17271    0.88316    1.000
    C23      C        0.17068    0.25631    0.82471    1.000
    H8       H        0.08240    0.28290    0.81250    1.000
    C24      C        0.26767    0.30010    0.78468    1.000
    C25      C        0.40046    0.26117    0.80490    1.000
    H9       H        0.46590    0.28980    0.77760    1.000
    C26      C        0.23199    0.38416    0.71627    1.000
    C27      C        0.09312    0.11643    0.91576    1.000
    Cd4      Cd       0.17871    0.53395    0.59169    1.000
    O19      O        0.37865    0.58608    0.54833    1.000
    O20      O        0.34864    0.65521    0.67227    1.000
    O21      O        0.68834    0.90047    0.83390    1.000
    O22      O        0.87489    0.93432    0.79086    1.000
    O23      O        0.02586    0.65434    0.60373    1.000
    O24      O        0.87987    0.53125    0.54562    1.000
    C28      C        0.42126    0.63836    0.61735    1.000
    C29      C        0.56325    0.68025    0.63488    1.000
    C30      C        0.66295    0.63623    0.59504    1.000
    H10      H        0.63970    0.58260    0.55410    1.000
    C31      C        0.79671    0.67271    0.61684    1.000
    C32      C        0.82932    0.75631    0.67529    1.000
    H11      H        0.91760    0.78290    0.68750    1.000
    C33      C        0.73233    0.80010    0.71532    1.000
    C34      C        0.59954    0.76117    0.69510    1.000
    H12      H        0.53410    0.78980    0.72240    1.000
    C35      C        0.76801    0.88416    0.78373    1.000
    C36      C        0.90688    0.61643    0.58424    1.000
