# CIF file generated by openbabel 3.1.0, see https://openbabel.org
data_I
_chemical_name_common 'ic5b00130_si_002_clean'
_cell_length_a 5.626
_cell_length_b 17.655
_cell_length_c 21.733
_cell_angle_alpha 90
_cell_angle_beta 90
_cell_angle_gamma 90
_space_group_name_H-M_alt 'P 1'
_space_group_name_Hall 'P 1'
loop_
    _symmetry_equiv_pos_as_xyz
    x,y,z
loop_
    _atom_site_label
    _atom_site_type_symbol
    _atom_site_fract_x
    _atom_site_fract_y
    _atom_site_fract_z
    _atom_site_occupancy
    Zn1      Zn       0.15468    0.32758    0.20405    1.000
    Zn2      Zn       0.84532    0.82758    0.29595    1.000
    Zn3      Zn       0.15468    0.67242    0.79595    1.000
    Zn4      Zn       0.84532    0.17242    0.70405    1.000
    H1       H        0.75300    0.17250    0.20130    1.000
    H2       H        0.23000    0.53790    0.31600    1.000
    H3       H        0.89940    0.19590    0.39530    1.000
    H4       H        0.14340    0.76220    0.91200    1.000
    H5       H        0.23000    0.46210    0.68400    1.000
    H6       H        0.14340    0.23780    0.08800    1.000
    H7       H        0.75300    0.82750    0.79870    1.000
    H8       H        0.76460    0.44230    0.93760    1.000
    H9       H        0.49470    0.03700    0.19450    1.000
    H10      H        0.12970    0.21990    0.31050    1.000
    H11      H        0.88070    0.56130    0.12390    1.000
    H12      H        0.38130    0.69460    0.55940    1.000
    H13      H        0.77000    0.03790    0.18400    1.000
    H14      H        0.73030    0.60780    0.73460    1.000
    H15      H        0.79100    0.09620    0.28820    1.000
    H16      H        0.71840    0.39700    0.14750    1.000
    H17      H        0.34760    0.64380    0.36160    1.000
    H18      H        0.85660    0.73780    0.41200    1.000
    H19      H        0.73030    0.39220    0.26540    1.000
    H20      H        0.11930    0.93870    0.62390    1.000
    H21      H        0.33130    0.92370    0.71060    1.000
    H22      H        0.87030    0.28010    0.81050    1.000
    H23      H        0.28160    0.89700    0.35250    1.000
    H24      H        0.20900    0.59620    0.21180    1.000
    H25      H        0.49470    0.96300    0.80550    1.000
    H26      H        0.90270    0.21620    0.00480    1.000
    H27      H        0.12970    0.78010    0.68950    1.000
    H28      H        0.66870    0.42370    0.78940    1.000
    H29      H        0.28160    0.10300    0.64750    1.000
    H30      H        0.38130    0.30540    0.44060    1.000
    H31      H        0.71840    0.60300    0.85250    1.000
    H32      H        0.50530    0.46300    0.69450    1.000
    H33      H        0.87030    0.71990    0.18950    1.000
    H34      H        0.23540    0.05770    0.43760    1.000
    H35      H        0.26970    0.89220    0.23460    1.000
    H36      H        0.51590    0.12920    0.84830    1.000
    H37      H        0.09730    0.28380    0.50480    1.000
    H38      H        0.66870    0.57630    0.21060    1.000
    H39      H        0.48410    0.37080    0.34830    1.000
    H40      H        0.90270    0.78380    0.99520    1.000
    H41      H        0.76460    0.55770    0.06240    1.000
    H42      H        0.62580    0.17720    0.46820    1.000
    H43      H        0.89940    0.80410    0.60470    1.000
    H44      H        0.10060    0.30410    0.89530    1.000
    H45      H        0.61870    0.80540    0.05940    1.000
    H46      H        0.24700    0.32750    0.70130    1.000
    H47      H        0.62580    0.82280    0.53180    1.000
    H48      H        0.26970    0.10780    0.76540    1.000
    H49      H        0.79100    0.90380    0.71180    1.000
    H50      H        0.20900    0.40380    0.78820    1.000
    H51      H        0.61870    0.19460    0.94060    1.000
    H52      H        0.85660    0.26220    0.58800    1.000
    H53      H        0.24700    0.67250    0.29870    1.000
    H54      H        0.51590    0.87080    0.15170    1.000
    H55      H        0.11930    0.06130    0.37610    1.000
    H56      H        0.65240    0.85620    0.86160    1.000
    H57      H        0.09730    0.71620    0.49520    1.000
    H58      H        0.52200    0.11650    0.56350    1.000
    H59      H        0.65240    0.14380    0.13840    1.000
    H60      H        0.52200    0.88350    0.43650    1.000
    H61      H        0.47800    0.61650    0.93650    1.000
    H62      H        0.23540    0.94230    0.56240    1.000
    H63      H        0.47800    0.38350    0.06350    1.000
    H64      H        0.34760    0.35620    0.63840    1.000
    H65      H        0.48410    0.62920    0.65170    1.000
    H66      H        0.10060    0.69590    0.10470    1.000
    H67      H        0.77000    0.96210    0.81600    1.000
    H68      H        0.88070    0.43870    0.87610    1.000
    H69      H        0.50530    0.53700    0.30550    1.000
    H70      H        0.37420    0.32280    0.96820    1.000
    H71      H        0.33130    0.07630    0.28940    1.000
    H72      H        0.37420    0.67720    0.03180    1.000
    C1       C        0.99990    0.24900    0.81860    1.000
    C2       C        0.50010    0.76940    0.06530    1.000
    C3       C        0.20090    0.48005    0.21308    1.000
    C4       C        0.35940    0.56316    0.29480    1.000
    C5       C        0.38470    0.16030    0.84190    1.000
    C6       C        0.64060    0.93684    0.79480    1.000
    C7       C        0.31920    0.44386    0.77543    1.000
    C8       C        0.00010    0.74900    0.68140    1.000
    C9       C        0.49280    0.28670    0.97361    1.000
    C10      C        0.53820    0.55910    0.12914    1.000
    C11      C        0.24360    0.86050    0.38180    1.000
    C12      C        0.33760    0.21870    0.88196    1.000
    C13      C        0.50720    0.21330    0.47361    1.000
    C14      C        0.33760    0.78130    0.11804    1.000
    C15      C        0.99990    0.75100    0.18140    1.000
    C16      C        0.20090    0.51995    0.78692    1.000
    C17      C        0.60950    0.64790    0.93181    1.000
    C18      C        0.68080    0.94386    0.72457    1.000
    C19      C        0.23560    0.14770    0.79180    1.000
    C20      C        0.39340    0.18510    0.19490    1.000
    C21      C        0.65640    0.29730    0.02507    1.000
    C22      C        0.49990    0.73060    0.56530    1.000
    C23      C        0.53820    0.44090    0.87086    1.000
    C24      C        0.75640    0.36050    0.11820    1.000
    C25      C        0.62510    0.85620    0.81750    1.000
    C26      C        0.86120    0.76400    0.63061    1.000
    C27      C        0.50010    0.23060    0.93470    1.000
    C28      C        0.68080    0.05614    0.27543    1.000
    C29      C        0.60660    0.68510    0.30510    1.000
    C30      C        0.37490    0.35620    0.68250    1.000
    C31      C        0.35940    0.43684    0.70520    1.000
    C32      C        0.13710    0.75350    0.46677    1.000
    C33      C        0.37490    0.64380    0.31750    1.000
    C34      C        0.76440    0.35230    0.29180    1.000
    C35      C        0.99480    0.23370    0.58353    1.000
    C36      C        0.24360    0.13950    0.61820    1.000
    C37      C        0.34360    0.20270    0.52507    1.000
    C38      C        0.39340    0.81490    0.80510    1.000
    C39      C        0.00520    0.73370    0.91647    1.000
    C40      C        0.66240    0.28130    0.38196    1.000
    C41      C        0.61530    0.33970    0.34190    1.000
    C42      C        0.49280    0.71330    0.02639    1.000
    C43      C        0.13880    0.26400    0.86939    1.000
    C44      C        0.62510    0.14380    0.18250    1.000
    C45      C        0.79910    0.01995    0.71308    1.000
    C46      C        0.31920    0.55614    0.22457    1.000
    C47      C        0.65640    0.70270    0.97493    1.000
    C48      C        0.64060    0.06316    0.20520    1.000
    C49      C        0.13880    0.73600    0.13061    1.000
    C50      C        0.39050    0.14790    0.56819    1.000
    C51      C        0.99480    0.76630    0.41647    1.000
    C52      C        0.38470    0.83970    0.15810    1.000
    C53      C        0.50720    0.78670    0.52639    1.000
    C54      C        0.76440    0.64770    0.70820    1.000
    C55      C        0.23560    0.85230    0.20820    1.000
    C56      C        0.86290    0.74650    0.96677    1.000
    C57      C        0.75640    0.63950    0.88180    1.000
    C58      C        0.86120    0.23600    0.36939    1.000
    C59      C        0.49990    0.26940    0.43470    1.000
    C60      C        0.39050    0.85210    0.43181    1.000
    C61      C        0.46180    0.05910    0.37086    1.000
    C62      C        0.66240    0.71870    0.61804    1.000
    C63      C        0.00010    0.25100    0.31860    1.000
    C64      C        0.79910    0.98005    0.28692    1.000
    C65      C        0.61530    0.66030    0.65810    1.000
    C66      C        0.46180    0.94090    0.62914    1.000
    C67      C        0.60660    0.31490    0.69490    1.000
    C68      C        0.86290    0.25350    0.03323    1.000
    C69      C        0.60950    0.35210    0.06819    1.000
    C70      C        0.34360    0.79730    0.47493    1.000
    C71      C        0.13710    0.24650    0.53323    1.000
    C72      C        0.00520    0.26630    0.08353    1.000
    N1       N        0.24600    0.94060    0.60184    1.000
    N2       N        0.04540    0.19084    0.78033    1.000
    N3       N        0.46090    0.06606    0.30870    1.000
    N4       N        0.75400    0.44060    0.89816    1.000
    N5       N        0.53910    0.56606    0.19130    1.000
    N6       N        0.04740    0.81837    0.37334    1.000
    N7       N        0.95260    0.31837    0.12666    1.000
    N8       N        0.53910    0.43394    0.80870    1.000
    N9       N        0.95460    0.30916    0.28033    1.000
    N10      N        0.04540    0.80916    0.21967    1.000
    N11      N        0.24600    0.05940    0.39816    1.000
    N12      N        0.04740    0.18163    0.62666    1.000
    N13      N        0.95260    0.68163    0.87334    1.000
    N14      N        0.75400    0.55940    0.10184    1.000
    N15      N        0.46090    0.93394    0.69130    1.000
    N16      N        0.95460    0.69084    0.71967    1.000
    O1       O        0.34810    0.44359    0.89972    1.000
    O2       O        0.65190    0.05641    0.39972    1.000
    O3       O        0.98250    0.52306    0.78949    1.000
    O4       O        0.41640    0.25646    0.20149    1.000
    O5       O        0.01750    0.02306    0.71051    1.000
    O6       O        0.33740    0.42215    0.20937    1.000
    O7       O        0.01750    0.97694    0.28949    1.000
    O8       O        0.20370    0.84820    0.80459    1.000
    O9       O        0.58360    0.24354    0.70149    1.000
    O10      O        0.33740    0.57785    0.79063    1.000
    O11      O        0.65190    0.94359    0.60028    1.000
    O12      O        0.79630    0.34820    0.69541    1.000
    O13      O        0.20370    0.15180    0.19541    1.000
    O14      O        0.66260    0.07785    0.70937    1.000
    O15      O        0.98250    0.47694    0.21051    1.000
    O16      O        0.58360    0.75646    0.29851    1.000
    O17      O        0.34810    0.55641    0.10028    1.000
    O18      O        0.41640    0.74354    0.79851    1.000
    O19      O        0.79630    0.65180    0.30459    1.000
    O20      O        0.66260    0.92215    0.29063    1.000
