# CIF file generated by openbabel 3.1.0, see https://openbabel.org
data_I
_chemical_name_common 'repaired_ja500330a_si_006'
_cell_length_a 26.8514
_cell_length_b 26.8514
_cell_length_c 26.8514
_cell_angle_alpha 90
_cell_angle_beta 90
_cell_angle_gamma 90
_space_group_name_H-M_alt 'P 1'
_space_group_name_Hall 'P 1'
loop_
    _symmetry_equiv_pos_as_xyz
    x,y,z
loop_
    _atom_site_label
    _atom_site_type_symbol
    _atom_site_fract_x
    _atom_site_fract_y
    _atom_site_fract_z
    _atom_site_occupancy
    O1       O        0.12872    0.06758    0.99844    1.000
    O2       O        0.87120    0.06833    0.00162    1.000
    O3       O        0.00141    0.12902    0.93316    1.000
    O4       O        0.99839    0.12753    0.06944    1.000
    O5       O        0.99917    0.06621    0.12965    1.000
    O6       O        0.00156    0.06928    0.87158    1.000
    O7       O        0.93226    0.12851    0.00256    1.000
    O8       O        0.06793    0.12811    0.99923    1.000
    Zr9      Zr       0.00003    0.08761    0.00078    1.000
    O10      O        0.95470    0.04446    0.04564    1.000
    O11      O        0.04532    0.04507    0.95512    1.000
    X12      C        0.11429    0.11401    0.99791    1.000
    X13      C        0.88579    0.11466    0.00287    1.000
    X14      C        0.00202    0.11554    0.88654    1.000
    X15      C        0.99843    0.11266    0.11570    1.000
    H16      H        0.93387    0.06664    0.93412    1.000
    O17      O        0.95507    0.04513    0.95515    1.000
    H18      H        0.06625    0.06506    0.06666    1.000
    O19      O        0.04488    0.04393    0.04541    1.000
    O20      O        0.87065    0.93207    0.99675    1.000
    O21      O        0.12832    0.93094    0.00268    1.000
    O22      O        0.93164    0.99933    0.87078    1.000
    O23      O        0.93129    0.00057    0.12868    1.000
    O24      O        0.06823    0.99697    0.12899    1.000
    O25      O        0.06857    0.00249    0.87125    1.000
    O26      O        0.99635    0.87145    0.93090    1.000
    O27      O        0.00060    0.87022    0.06684    1.000
    O28      O        0.99903    0.93255    0.87038    1.000
    O29      O        0.00079    0.93008    0.12831    1.000
    O30      O        0.87120    0.99920    0.93168    1.000
    O31      O        0.12906    0.99934    0.93235    1.000
    O32      O        0.12864    0.99777    0.06809    1.000
    O33      O        0.87100    0.00128    0.06759    1.000
    O34      O        0.93112    0.87098    0.99831    1.000
    O35      O        0.06735    0.87034    0.99946    1.000
    Zr36     Zr       0.91167    0.99998    0.99970    1.000
    Zr37     Zr       0.08803    0.99925    0.00012    1.000
    Zr38     Zr       0.00002    0.00050    0.91143    1.000
    Zr39     Zr       0.99981    0.99866    0.08837    1.000
    Zr40     Zr       0.99937    0.91142    0.99920    1.000
    O41      O        0.04489    0.95365    0.04495    1.000
    O42      O        0.95455    0.95504    0.95411    1.000
    X43      C        0.88489    0.88566    0.99666    1.000
    X44      C        0.11369    0.88468    0.00184    1.000
    X45      C        0.88521    0.99873    0.88525    1.000
    X46      C        0.88493    0.00183    0.11405    1.000
    X47      C        0.11466    0.99676    0.11453    1.000
    X48      C        0.11484    0.00117    0.88600    1.000
    X49      C        0.99672    0.88620    0.88470    1.000
    X50      C        0.00104    0.88385    0.11339    1.000
    H51      H        0.06572    0.93355    0.93338    1.000
    O52      O        0.04458    0.95490    0.95465    1.000
    H53      H        0.93309    0.93320    0.06554    1.000
    O54      O        0.95456    0.95446    0.04451    1.000
    O55      O        0.62826    0.56676    0.99822    1.000
    O56      O        0.37085    0.56694    0.00160    1.000
    O57      O        0.50148    0.62852    0.93294    1.000
    O58      O        0.49752    0.62706    0.06942    1.000
    O59      O        0.49932    0.56565    0.12956    1.000
    O60      O        0.50085    0.56867    0.87143    1.000
    O61      O        0.43117    0.62800    0.00105    1.000
    O62      O        0.56806    0.62789    0.00063    1.000
    Zr63     Zr       0.49961    0.58735    0.00067    1.000
    O64      O        0.45450    0.54390    0.04568    1.000
    O65      O        0.54479    0.54468    0.95485    1.000
    X66      C        0.61443    0.61325    0.99978    1.000
    X67      C        0.38479    0.61340    0.00090    1.000
    X68      C        0.50182    0.61495    0.88633    1.000
    X69      C        0.49808    0.61209    0.11564    1.000
    H70      H        0.43340    0.56561    0.93404    1.000
    O71      O        0.45466    0.54436    0.95529    1.000
    H72      H        0.56597    0.56428    0.06649    1.000
    O73      O        0.54459    0.54336    0.04505    1.000
    O74      O        0.37070    0.43084    0.99860    1.000
    O75      O        0.62825    0.43047    0.00023    1.000
    O76      O        0.43096    0.49843    0.87097    1.000
    O77      O        0.43146    0.49991    0.12889    1.000
    O78      O        0.56830    0.49620    0.12857    1.000
    O79      O        0.56767    0.50204    0.87077    1.000
    O80      O        0.49646    0.37087    0.93103    1.000
    O81      O        0.50136    0.36977    0.06676    1.000
    O82      O        0.49809    0.43181    0.87041    1.000
    O83      O        0.50115    0.42956    0.12824    1.000
    O84      O        0.37079    0.49736    0.93212    1.000
    O85      O        0.62838    0.49951    0.93164    1.000
    O86      O        0.62849    0.49650    0.06743    1.000
    O87      O        0.37104    0.50055    0.06798    1.000
    O88      O        0.43154    0.37014    0.99854    1.000
    O89      O        0.56727    0.36994    0.99939    1.000
    Zr90     Zr       0.41154    0.49899    0.00001    1.000
    Zr91     Zr       0.58765    0.49870    0.99957    1.000
    Zr92     Zr       0.49942    0.49991    0.91134    1.000
    Zr93     Zr       0.49982    0.49812    0.08826    1.000
    Zr94     Zr       0.49941    0.41092    0.99918    1.000
    O95      O        0.54494    0.45316    0.04475    1.000
    O96      O        0.45427    0.45425    0.95420    1.000
    X97      C        0.38522    0.38450    0.99864    1.000
    X98      C        0.61365    0.38416    0.99958    1.000
    X99      C        0.38463    0.49707    0.88563    1.000
    X100     C        0.38506    0.50110    0.11440    1.000
    X101     C        0.61464    0.49554    0.11392    1.000
    X102     C        0.61400    0.50116    0.88535    1.000
    X103     C        0.49625    0.38542    0.88479    1.000
    X104     C        0.50187    0.38333    0.11331    1.000
    H105     H        0.56523    0.43316    0.93276    1.000
    O106     O        0.54419    0.45438    0.95426    1.000
    H107     H        0.43344    0.43244    0.06598    1.000
    O108     O        0.45467    0.45371    0.04471    1.000
    O109     O        0.12857    0.56849    0.49790    1.000
    O110     O        0.87124    0.56909    0.50139    1.000
    O111     O        0.00230    0.62902    0.43135    1.000
    O112     O        0.99822    0.62901    0.56748    1.000
    O113     O        0.99955    0.56884    0.62866    1.000
    O114     O        0.00124    0.56825    0.37052    1.000
    O115     O        0.93226    0.62933    0.50106    1.000
    O116     O        0.06783    0.62900    0.49841    1.000
    Zr117    Zr       0.99995    0.58840    0.49953    1.000
    O118     O        0.95462    0.54574    0.54496    1.000
    O119     O        0.04520    0.54552    0.45428    1.000
    X120     C        0.11421    0.61492    0.49751    1.000
    X121     C        0.88582    0.61543    0.50208    1.000
    X122     C        0.00293    0.61451    0.38501    1.000
    X123     C        0.99917    0.61517    0.61396    1.000
    H124     H        0.93377    0.56693    0.43339    1.000
    O125     O        0.95487    0.54547    0.45459    1.000
    H126     H        0.06608    0.56650    0.56572    1.000
    O127     O        0.04470    0.54519    0.54466    1.000
    O128     O        0.87067    0.43278    0.49828    1.000
    O129     O        0.12826    0.43223    0.50230    1.000
    O130     O        0.93138    0.49902    0.37079    1.000
    O131     O        0.93121    0.50331    0.62854    1.000
    O132     O        0.06799    0.49882    0.62871    1.000
    O133     O        0.06813    0.50137    0.37089    1.000
    O134     O        0.99671    0.37159    0.43094    1.000
    O135     O        0.00151    0.37136    0.56777    1.000
    O136     O        0.99872    0.43258    0.37087    1.000
    O137     O        0.00111    0.43210    0.62869    1.000
    O138     O        0.87070    0.49992    0.43173    1.000
    O139     O        0.12871    0.50060    0.43190    1.000
    O140     O        0.12860    0.49941    0.56773    1.000
    O141     O        0.87088    0.50199    0.56756    1.000
    O142     O        0.93076    0.37155    0.49850    1.000
    O143     O        0.06762    0.37137    0.50018    1.000
    Zr144    Zr       0.91156    0.50065    0.49967    1.000
    Zr145    Zr       0.08784    0.50024    0.49977    1.000
    Zr146    Zr       0.99975    0.50038    0.41139    1.000
    Zr147    Zr       0.99966    0.50041    0.58816    1.000
    Zr148    Zr       0.99927    0.41193    0.49954    1.000
    O149     O        0.04461    0.45502    0.54489    1.000
    O150     O        0.95424    0.45523    0.45430    1.000
    X151     C        0.88442    0.38624    0.49793    1.000
    X152     C        0.11397    0.38590    0.50212    1.000
    X153     C        0.88503    0.49951    0.38537    1.000
    X154     C        0.88484    0.50421    0.61394    1.000
    X155     C        0.11431    0.49915    0.61410    1.000
    X156     C        0.11445    0.50075    0.38553    1.000
    X157     C        0.99653    0.38621    0.38453    1.000
    X158     C        0.00267    0.38576    0.61415    1.000
    H159     H        0.06558    0.43382    0.43362    1.000
    O160     O        0.04443    0.45526    0.45480    1.000
    H161     H        0.93332    0.43438    0.56613    1.000
    O162     O        0.95461    0.45549    0.54476    1.000
    O163     O        0.62842    0.06807    0.49619    1.000
    O164     O        0.37083    0.06631    0.50189    1.000
    O165     O        0.50133    0.12831    0.43097    1.000
    O166     O        0.49682    0.12850    0.56660    1.000
    O167     O        0.49979    0.06885    0.62799    1.000
    O168     O        0.50138    0.06744    0.37032    1.000
    O169     O        0.43027    0.12780    0.49933    1.000
    O170     O        0.56743    0.12870    0.49781    1.000
    Zr171    Zr       0.49925    0.08776    0.49899    1.000
    O172     O        0.45462    0.04467    0.54475    1.000
    O173     O        0.54484    0.04488    0.45390    1.000
    X174     C        0.61383    0.11437    0.49569    1.000
    X175     C        0.38395    0.11284    0.50063    1.000
    X176     C        0.50275    0.11378    0.38471    1.000
    X177     C        0.49826    0.11513    0.61309    1.000
    H178     H        0.43333    0.06526    0.43307    1.000
    O179     O        0.45455    0.04407    0.45441    1.000
    H180     H        0.56610    0.06650    0.56480    1.000
    O181     O        0.54480    0.04492    0.54392    1.000
    O182     O        0.37149    0.93047    0.49900    1.000
    O183     O        0.62889    0.93163    0.50080    1.000
    O184     O        0.43138    0.99751    0.37062    1.000
    O185     O        0.43237    0.00218    0.62888    1.000
    O186     O        0.56895    0.99947    0.62816    1.000
    O187     O        0.56789    0.00077    0.37034    1.000
    O188     O        0.49712    0.87083    0.43103    1.000
    O189     O        0.50320    0.87097    0.56789    1.000
    O190     O        0.49899    0.93161    0.37074    1.000
    O191     O        0.50264    0.93183    0.62867    1.000
    O192     O        0.37083    0.99826    0.43177    1.000
    O193     O        0.62871    0.00002    0.43112    1.000
    O194     O        0.62922    0.99936    0.56690    1.000
    O195     O        0.37166    0.00022    0.56821    1.000
    O196     O        0.43262    0.87010    0.49958    1.000
    O197     O        0.56824    0.87072    0.49951    1.000
    Zr198    Zr       0.41185    0.99883    0.49982    1.000
    Zr199    Zr       0.58813    0.99979    0.49912    1.000
    Zr200    Zr       0.49971    0.99944    0.41114    1.000
    Zr201    Zr       0.50044    0.00004    0.58793    1.000
    Zr202    Zr       0.50026    0.91128    0.49957    1.000
    O203     O        0.54554    0.95459    0.54473    1.000
    O204     O        0.45470    0.95387    0.45428    1.000
    X205     C        0.38623    0.88421    0.49956    1.000
    X206     C        0.61450    0.88526    0.50000    1.000
    X207     C        0.38510    0.99779    0.38533    1.000
    X208     C        0.38593    0.00262    0.61456    1.000
    X209     C        0.61522    0.99971    0.61336    1.000
    X210     C        0.61425    0.00027    0.38482    1.000
    X211     C        0.49677    0.88530    0.38457    1.000
    X212     C        0.50436    0.88544    0.61423    1.000
    H213     H        0.56586    0.93328    0.43305    1.000
    O214     O        0.54482    0.95464    0.45440    1.000
    H215     H        0.43462    0.93332    0.56654    1.000
    O216     O        0.45557    0.95451    0.54493    1.000
    X217     C        0.15386    0.15419    0.99637    1.000
    C218     C        0.20463    0.14163    0.00154    1.000
    C219     C        0.24210    0.17831    0.00108    1.000
    C220     C        0.23045    0.22916    0.99536    1.000
    C221     C        0.17988    0.24189    0.98972    1.000
    C222     C        0.14186    0.20533    0.99005    1.000
    C223     C        0.27057    0.26879    0.99610    1.000
    C224     C        0.31259    0.26413    0.02718    1.000
    C225     C        0.34942    0.30147    0.02976    1.000
    X226     C        0.34578    0.34475    0.99938    1.000
    C227     C        0.30366    0.34948    0.96852    1.000
    C228     C        0.26678    0.31225    0.96685    1.000
    O229     O        0.09219    0.21986    0.98397    1.000
    O230     O        0.38745    0.29498    0.06479    1.000
    H231     H        0.21565    0.10313    0.00626    1.000
    H232     H        0.28048    0.16657    0.00480    1.000
    H233     H        0.16954    0.28066    0.98593    1.000
    H234     H        0.31613    0.23209    0.05140    1.000
    H235     H        0.29961    0.38190    0.94485    1.000
    H236     H        0.23555    0.31731    0.94188    1.000
    H237     H        0.08745    0.25704    0.97946    1.000
    H238     H        0.40663    0.32621    0.07329    1.000
    X239     C        0.15391    0.65501    0.49672    1.000
    C240     C        0.20480    0.64193    0.49852    1.000
    C241     C        0.24249    0.67836    0.49847    1.000
    C242     C        0.23094    0.72948    0.49642    1.000
    C243     C        0.18029    0.74282    0.49438    1.000
    C244     C        0.14203    0.70654    0.49454    1.000
    C245     C        0.27128    0.76880    0.49713    1.000
    C246     C        0.31446    0.76277    0.52632    1.000
    C247     C        0.35147    0.79996    0.52902    1.000
    X248     C        0.34684    0.84437    0.50042    1.000
    C249     C        0.30357    0.85033    0.47138    1.000
    C250     C        0.26650    0.81333    0.46978    1.000
    O251     O        0.09226    0.72180    0.49259    1.000
    O252     O        0.39068    0.79207    0.56243    1.000
    H253     H        0.21577    0.60316    0.50011    1.000
    H254     H        0.28093    0.66628    0.49950    1.000
    H255     H        0.17014    0.78182    0.49359    1.000
    H256     H        0.31877    0.72974    0.54905    1.000
    H257     H        0.29868    0.88361    0.44910    1.000
    H258     H        0.23429    0.81941    0.44632    1.000
    H259     H        0.08764    0.75923    0.49104    1.000
    H260     H        0.40974    0.82304    0.57208    1.000
    X261     C        0.84524    0.84614    0.99578    1.000
    C262     C        0.84990    0.80367    0.02603    1.000
    C263     C        0.81281    0.76669    0.02694    1.000
    C264     C        0.76998    0.76986    0.99649    1.000
    C265     C        0.76583    0.81225    0.96550    1.000
    C266     C        0.80255    0.85026    0.96532    1.000
    C267     C        0.73016    0.72942    0.99724    1.000
    C268     C        0.74165    0.68008    0.01122    1.000
    C269     C        0.70486    0.64279    0.01498    1.000
    X270     C        0.65470    0.65282    0.00080    1.000
    C271     C        0.64333    0.70205    0.98631    1.000
    C272     C        0.68001    0.73960    0.98514    1.000
    O273     O        0.79755    0.89150    0.93390    1.000
    O274     O        0.71976    0.59713    0.03509    1.000
    H275     H        0.88199    0.79961    0.05015    1.000
    H276     H        0.81770    0.73599    0.05251    1.000
    H277     H        0.73440    0.81581    0.94058    1.000
    H278     H        0.77949    0.66994    0.02050    1.000
    H279     H        0.60567    0.71180    0.97566    1.000
    H280     H        0.66851    0.77687    0.97514    1.000
    H281     H        0.76603    0.89112    0.91313    1.000
    H282     H        0.69295    0.57967    0.05492    1.000
    X283     C        0.84402    0.34673    0.49742    1.000
    C284     C        0.85646    0.29606    0.49089    1.000
    C285     C        0.81972    0.25858    0.49035    1.000
    C286     C        0.76887    0.27006    0.49648    1.000
    C287     C        0.75622    0.32057    0.50306    1.000
    C288     C        0.79283    0.35861    0.50363    1.000
    C289     C        0.72921    0.22983    0.49581    1.000
    C290     C        0.73334    0.18795    0.46439    1.000
    C291     C        0.69606    0.15088    0.46245    1.000
    X292     C        0.65341    0.15414    0.49377    1.000
    C293     C        0.64929    0.19612    0.52492    1.000
    C294     C        0.68634    0.23321    0.52595    1.000
    O295     O        0.77832    0.40815    0.51072    1.000
    O296     O        0.70205    0.11288    0.42730    1.000
    H297     H        0.89496    0.28511    0.48607    1.000
    H298     H        0.83143    0.22029    0.48579    1.000
    H299     H        0.71745    0.33085    0.50709    1.000
    H300     H        0.76496    0.18464    0.43960    1.000
    H301     H        0.61760    0.19983    0.54953    1.000
    H302     H        0.68171    0.26421    0.55128    1.000
    H303     H        0.74111    0.41283    0.51500    1.000
    H304     H        0.67088    0.09313    0.41995    1.000
    X305     C        0.84621    0.15488    0.00385    1.000
    C306     C        0.79530    0.14198    0.00149    1.000
    C307     C        0.75772    0.17854    0.00135    1.000
    C308     C        0.76937    0.22963    0.00371    1.000
    C309     C        0.82008    0.24278    0.00649    1.000
    C310     C        0.85825    0.20634    0.00658    1.000
    C311     C        0.72905    0.26904    0.00256    1.000
    C312     C        0.68599    0.26291    0.97318    1.000
    C313     C        0.64887    0.29999    0.97029    1.000
    X314     C        0.65322    0.34445    0.99885    1.000
    C315     C        0.69642    0.35058    0.02798    1.000
    C316     C        0.73361    0.31368    0.02981    1.000
    O317     O        0.90808    0.22132    0.00919    1.000
    O318     O        0.60979    0.29191    0.93676    1.000
    H319     H        0.78421    0.10326    0.99954    1.000
    H320     H        0.71926    0.16655    0.99988    1.000
    H321     H        0.83036    0.28174    0.00760    1.000
    H322     H        0.68184    0.22984    0.95048    1.000
    H323     H        0.70114    0.38389    0.05023    1.000
    H324     H        0.76569    0.31990    0.05340    1.000
    H325     H        0.91285    0.25872    0.01103    1.000
    H326     H        0.59059    0.32280    0.92708    1.000
    X327     C        0.84631    0.65562    0.50334    1.000
    C328     C        0.79557    0.64305    0.49784    1.000
    C329     C        0.75811    0.67969    0.49791    1.000
    C330     C        0.76971    0.73053    0.50359    1.000
    C331     C        0.82024    0.74331    0.50958    1.000
    C332     C        0.85827    0.70676    0.50961    1.000
    C333     C        0.72956    0.77008    0.50258    1.000
    C334     C        0.68781    0.76544    0.47112    1.000
    C335     C        0.65084    0.80264    0.46848    1.000
    X336     C        0.65409    0.84571    0.49918    1.000
    C337     C        0.69598    0.85046    0.53034    1.000
    C338     C        0.73300    0.81339    0.53207    1.000
    O339     O        0.90791    0.72128    0.51602    1.000
    O340     O        0.61304    0.79618    0.43319    1.000
    H341     H        0.78456    0.60455    0.49315    1.000
    H342     H        0.71976    0.66793    0.49395    1.000
    H343     H        0.83053    0.78210    0.51337    1.000
    H344     H        0.68458    0.73350    0.44672    1.000
    H345     H        0.69973    0.88275    0.55424    1.000
    H346     H        0.76402    0.81840    0.55730    1.000
    H347     H        0.91262    0.75848    0.52041    1.000
    H348     H        0.59366    0.82733    0.42482    1.000
    X349     C        0.15386    0.34643    0.50323    1.000
    C350     C        0.14521    0.29966    0.48123    1.000
    C351     C        0.18219    0.26258    0.48064    1.000
    C352     C        0.22921    0.27037    0.50281    1.000
    C353     C        0.23779    0.31708    0.52528    1.000
    C354     C        0.20092    0.35488    0.52554    1.000
    C355     C        0.26868    0.22990    0.50267    1.000
    C356     C        0.25527    0.17928    0.50355    1.000
    C357     C        0.29083    0.14081    0.50081    1.000
    X358     C        0.34299    0.15206    0.50018    1.000
    C359     C        0.35615    0.20306    0.50021    1.000
    C360     C        0.31993    0.24105    0.50096    1.000
    O361     O        0.21042    0.40040    0.54904    1.000
    O362     O        0.27167    0.09246    0.49860    1.000
    H363     H        0.10985    0.29195    0.46340    1.000
    H364     H        0.17391    0.22791    0.46187    1.000
    H365     H        0.27298    0.32414    0.54362    1.000
    H366     H        0.21639    0.16888    0.50574    1.000
    H367     H        0.39495    0.21400    0.49941    1.000
    H368     H        0.33238    0.27934    0.49958    1.000
    H369     H        0.24488    0.40287    0.56426    1.000
    H370     H        0.29058    0.06890    0.47638    1.000
    X371     C        0.15314    0.84504    0.00281    1.000
    C372     C        0.15126    0.80514    0.96900    1.000
    C373     C        0.18857    0.76832    0.96833    1.000
    C374     C        0.22873    0.76921    0.00236    1.000
    C375     C        0.23002    0.80899    0.03679    1.000
    C376     C        0.19307    0.84672    0.03698    1.000
    C377     C        0.26871    0.72903    0.00194    1.000
    C378     C        0.25834    0.68050    0.98473    1.000
    C379     C        0.29543    0.64346    0.98164    1.000
    X380     C        0.34454    0.65290    0.99945    1.000
    C381     C        0.35480    0.70135    0.01698    1.000
    C382     C        0.31791    0.73870    0.01776    1.000
    O383     O        0.19488    0.88510    0.07210    1.000
    O384     O        0.28208    0.59878    0.95848    1.000
    H385     H        0.12127    0.80303    0.94209    1.000
    H386     H        0.18606    0.73957    0.94025    1.000
    H387     H        0.25930    0.81056    0.06440    1.000
    H388     H        0.22120    0.67091    0.97243    1.000
    H389     H        0.39169    0.71057    0.03041    1.000
    H390     H        0.32846    0.77546    0.03039    1.000
    H391     H        0.22439    0.88290    0.09554    1.000
    H392     H        0.31040    0.58179    0.94042    1.000
    X393     C        0.99809    0.15192    0.15577    1.000
    C394     C        0.97603    0.19859    0.14671    1.000
    C395     C        0.97499    0.23580    0.18354    1.000
    C396     C        0.99671    0.22819    0.23079    1.000
    C397     C        0.01907    0.18152    0.23984    1.000
    C398     C        0.01979    0.14361    0.20313    1.000
    C399     C        0.99641    0.26882    0.27004    1.000
    C400     C        0.99785    0.31942    0.25646    1.000
    C401     C        0.99552    0.35790    0.29203    1.000
    X402     C        0.99468    0.34671    0.34406    1.000
    C403     C        0.99384    0.29581    0.35743    1.000
    C404     C        0.99422    0.25777    0.32130    1.000
    O405     O        0.04331    0.09818    0.21305    1.000
    O406     O        0.99381    0.40645    0.27346    1.000
    H407     H        0.95871    0.20618    0.11108    1.000
    H408     H        0.95635    0.27047    0.17494    1.000
    H409     H        0.03706    0.17462    0.27522    1.000
    H410     H        0.00023    0.32974    0.21757    1.000
    H411     H        0.99278    0.28503    0.39627    1.000
    H412     H        0.99230    0.21952    0.33382    1.000
    H413     H        0.05812    0.09585    0.24769    1.000
    H414     H        0.96880    0.42840    0.29098    1.000
    X415     C        0.49483    0.34573    0.84529    1.000
    C416     C        0.51832    0.35371    0.79915    1.000
    C417     C        0.51883    0.31666    0.76217    1.000
    C418     C        0.49506    0.27035    0.76947    1.000
    C419     C        0.47102    0.26253    0.81552    1.000
    C420     C        0.47091    0.29943    0.85325    1.000
    C421     C        0.49536    0.23071    0.72926    1.000
    C422     C        0.49662    0.24379    0.67852    1.000
    C423     C        0.49979    0.20777    0.64056    1.000
    X424     C        0.49851    0.15588    0.65227    1.000
    C425     C        0.49631    0.14300    0.70324    1.000
    C426     C        0.49528    0.17952    0.74088    1.000
    O427     O        0.44599    0.29076    0.89818    1.000
    O428     O        0.50507    0.22572    0.59202    1.000
    H429     H        0.53742    0.38850    0.79195    1.000
    H430     H        0.53882    0.32428    0.72804    1.000
    H431     H        0.45143    0.22795    0.82214    1.000
    H432     H        0.49605    0.28262    0.66772    1.000
    H433     H        0.49562    0.10426    0.71439    1.000
    H434     H        0.49506    0.16733    0.77928    1.000
    H435     H        0.42969    0.25678    0.90033    1.000
    H436     H        0.53058    0.20693    0.57175    1.000
    X437     C        0.99543    0.84679    0.84515    1.000
    C438     C        0.02661    0.85061    0.80331    1.000
    C439     C        0.02739    0.81330    0.76660    1.000
    C440     C        0.99589    0.77123    0.76947    1.000
    C441     C        0.96400    0.76794    0.81122    1.000
    C442     C        0.96394    0.80483    0.84899    1.000
    C443     C        0.99652    0.73125    0.72936    1.000
    C444     C        0.01122    0.74236    0.68019    1.000
    C445     C        0.01505    0.70535    0.64323    1.000
    X446     C        0.00012    0.65545    0.65337    1.000
    C447     C        0.98485    0.64447    0.70242    1.000
    C448     C        0.98366    0.68134    0.73973    1.000
    O449     O        0.93177    0.80071    0.88977    1.000
    O450     O        0.03616    0.71960    0.59787    1.000
    H451     H        0.05157    0.88209    0.79962    1.000
    H452     H        0.05367    0.81737    0.73638    1.000
    H453     H        0.93834    0.73707    0.81445    1.000
    H454     H        0.02110    0.78004    0.66997    1.000
    H455     H        0.97362    0.60698    0.71219    1.000
    H456     H        0.97307    0.67021    0.77695    1.000
    H457     H        0.91033    0.76965    0.88922    1.000
    H458     H        0.05632    0.69241    0.58141    1.000
    X459     C        0.49781    0.65125    0.15575    1.000
    C460     C        0.47406    0.69722    0.14748    1.000
    C461     C        0.47308    0.73433    0.18440    1.000
    C462     C        0.49664    0.72736    0.23087    1.000
    C463     C        0.52068    0.68138    0.23909    1.000
    C464     C        0.52128    0.64353    0.20233    1.000
    C465     C        0.49646    0.76795    0.27014    1.000
    C466     C        0.49556    0.81856    0.25657    1.000
    C467     C        0.49315    0.85694    0.29222    1.000
    X468     C        0.49476    0.84573    0.34423    1.000
    C469     C        0.49630    0.79486    0.35759    1.000
    C470     C        0.49665    0.75685    0.32145    1.000
    O471     O        0.54642    0.59880    0.21136    1.000
    O472     O        0.48865    0.90536    0.27375    1.000
    H473     H        0.45536    0.70428    0.11244    1.000
    H474     H        0.45308    0.76839    0.17648    1.000
    H475     H        0.54009    0.67500    0.27383    1.000
    H476     H        0.49605    0.82896    0.21763    1.000
    H477     H        0.49723    0.78409    0.39644    1.000
    H478     H        0.49660    0.71857    0.33402    1.000
    H479     H        0.56243    0.59686    0.24549    1.000
    H480     H        0.46425    0.92663    0.29288    1.000
    X481     C        0.00124    0.84351    0.15275    1.000
    C482     C        0.00930    0.85587    0.20319    1.000
    C483     C        0.00961    0.81923    0.24064    1.000
    C484     C        0.00170    0.76864    0.22931    1.000
    C485     C        0.99347    0.75605    0.17905    1.000
    C486     C        0.99311    0.79260    0.14102    1.000
    C487     C        0.00238    0.72917    0.26951    1.000
    C488     C        0.03550    0.73238    0.31011    1.000
    C489     C        0.03747    0.69523    0.34719    1.000
    X490     C        0.00451    0.65386    0.34528    1.000
    C491     C        0.97174    0.65049    0.30449    1.000
    C492     C        0.97064    0.68741    0.26733    1.000
    O493     O        0.98426    0.77836    0.09169    1.000
    O494     O        0.07437    0.69978    0.38365    1.000
    H495     H        0.01556    0.89422    0.21397    1.000
    H496     H        0.01544    0.83082    0.27881    1.000
    H497     H        0.98798    0.71740    0.16898    1.000
    H498     H        0.06157    0.76306    0.31230    1.000
    H499     H        0.94613    0.61944    0.30177    1.000
    H500     H        0.94413    0.68356    0.23721    1.000
    H501     H        0.97853    0.74132    0.08716    1.000
    H502     H        0.08078    0.66843    0.40345    1.000
    X503     C        0.50270    0.65547    0.84691    1.000
    C504     C        0.50397    0.64280    0.79588    1.000
    C505     C        0.50442    0.67954    0.75843    1.000
    C506     C        0.50348    0.73064    0.77027    1.000
    C507     C        0.50231    0.74358    0.82112    1.000
    C508     C        0.50198    0.70695    0.85916    1.000
    C509     C        0.50414    0.77025    0.73001    1.000
    C510     C        0.53198    0.76380    0.68597    1.000
    C511     C        0.53418    0.80093    0.64878    1.000
    X512     C        0.50641    0.84582    0.65404    1.000
    C513     C        0.47885    0.85225    0.69826    1.000
    C514     C        0.47778    0.81532    0.73549    1.000
    O515     O        0.50100    0.72178    0.90910    1.000
    O516     O        0.56627    0.79243    0.60863    1.000
    H517     H        0.50450    0.60409    0.78459    1.000
    H518     H        0.50477    0.66768    0.71990    1.000
    H519     H        0.50247    0.78251    0.83157    1.000
    H520     H        0.55399    0.73039    0.68100    1.000
    H521     H        0.45715    0.88582    0.70374    1.000
    H522     H        0.45534    0.82183    0.76834    1.000
    H523     H        0.50058    0.75920    0.91403    1.000
    H524     H        0.57602    0.82332    0.58950    1.000
    X525     C        0.50248    0.34292    0.15260    1.000
    C526     C        0.50199    0.35567    0.20360    1.000
    C527     C        0.50209    0.31899    0.24100    1.000
    C528     C        0.50248    0.26796    0.22902    1.000
    C529     C        0.50299    0.25490    0.17825    1.000
    C530     C        0.50315    0.29147    0.14026    1.000
    C531     C        0.50293    0.22852    0.26916    1.000
    C532     C        0.53057    0.23514    0.31324    1.000
    C533     C        0.53269    0.19806    0.35036    1.000
    X534     C        0.50490    0.15324    0.34497    1.000
    C535     C        0.47754    0.14665    0.30069    1.000
    C536     C        0.47664    0.18348    0.26345    1.000
    O537     O        0.50422    0.27665    0.09032    1.000
    O538     O        0.56474    0.20649    0.39054    1.000
    H539     H        0.50137    0.39438    0.21490    1.000
    H540     H        0.50116    0.33077    0.27954    1.000
    H541     H        0.50418    0.21596    0.16788    1.000
    H542     H        0.55251    0.26860    0.31823    1.000
    H543     H        0.45591    0.11304    0.29515    1.000
    H544     H        0.45445    0.17697    0.23043    1.000
    H545     H        0.50450    0.23923    0.08537    1.000
    H546     H        0.57471    0.17549    0.40936    1.000
    X547     C        0.00254    0.15607    0.84715    1.000
    C548     C        0.00598    0.14346    0.79622    1.000
    C549     C        0.00613    0.18017    0.75875    1.000
    C550     C        0.00281    0.23121    0.77047    1.000
    C551     C        0.99944    0.24408    0.82125    1.000
    C552     C        0.99923    0.20746    0.85931    1.000
    C553     C        0.00320    0.27078    0.73014    1.000
    C554     C        0.03204    0.26501    0.68664    1.000
    C555     C        0.03382    0.30202    0.64932    1.000
    X556     C        0.00476    0.34614    0.65394    1.000
    C557     C        0.97626    0.35197    0.69763    1.000
    C558     C        0.97547    0.31511    0.73495    1.000
    O559     O        0.99557    0.22219    0.90915    1.000
    O560     O        0.06675    0.29425    0.60971    1.000
    H561     H        0.00848    0.10481    0.78501    1.000
    H562     H        0.00814    0.16828    0.72029    1.000
    H563     H        0.99768    0.28297    0.83169    1.000
    H564     H        0.05511    0.23224    0.68217    1.000
    H565     H        0.95363    0.38500    0.70262    1.000
    H566     H        0.95220    0.32110    0.76731    1.000
    H567     H        0.99331    0.25955    0.91405    1.000
    H568     H        0.07548    0.32520    0.59021    1.000
    X569     C        0.15492    0.99607    0.15417    1.000
    C570     C        0.14216    0.99971    0.20507    1.000
    C571     C        0.17883    0.99983    0.24261    1.000
    C572     C        0.22971    0.99536    0.23088    1.000
    C573     C        0.24278    0.99140    0.18032    1.000
    C574     C        0.20635    0.99235    0.14215    1.000
    C575     C        0.26918    0.99584    0.27095    1.000
    C576     C        0.26757    0.03081    0.30997    1.000
    C577     C        0.30546    0.03333    0.34631    1.000
    X578     C        0.34533    0.99846    0.34587    1.000
    C579     C        0.34679    0.96353    0.30678    1.000
    C580     C        0.30964    0.96247    0.26975    1.000
    O581     O        0.22136    0.98999    0.09231    1.000
    O582     O        0.30346    0.07275    0.38027    1.000
    H583     H        0.10352    0.00285    0.21614    1.000
    H584     H        0.16723    0.00283    0.28112    1.000
    H585     H        0.28175    0.98870    0.17028    1.000
    H586     H        0.23777    0.05797    0.31111    1.000
    H587     H        0.37650    0.93637    0.30523    1.000
    H588     H        0.31216    0.93486    0.24048    1.000
    H589     H        0.25872    0.98736    0.08759    1.000
    H590     H        0.33546    0.07879    0.39918    1.000
    X591     C        0.34435    0.49581    0.84610    1.000
    C592     C        0.35690    0.50123    0.79535    1.000
    C593     C        0.32026    0.50103    0.75785    1.000
    C594     C        0.26938    0.49537    0.76940    1.000
    C595     C        0.25663    0.48952    0.81997    1.000
    C596     C        0.29319    0.48956    0.85804    1.000
    C597     C        0.22981    0.49629    0.72916    1.000
    C598     C        0.23473    0.52726    0.68705    1.000
    C599     C        0.19753    0.52990    0.65004    1.000
    X600     C        0.15410    0.49972    0.65357    1.000
    C601     C        0.14913    0.46897    0.69577    1.000
    C602     C        0.18622    0.46723    0.73281    1.000
    O603     O        0.27865    0.48326    0.90767    1.000
    O604     O        0.20437    0.56479    0.61193    1.000
    H605     H        0.39541    0.50589    0.78433    1.000
    H606     H        0.33206    0.50487    0.71950    1.000
    H607     H        0.21785    0.48576    0.83028    1.000
    H608     H        0.26687    0.55135    0.68357    1.000
    H609     H        0.11660    0.44544    0.69977    1.000
    H610     H        0.18095    0.44233    0.76406    1.000
    H611     H        0.24145    0.47894    0.91238    1.000
    H612     H        0.17328    0.57342    0.59258    1.000
    X613     C        0.84497    0.99802    0.84563    1.000
    C614     C        0.85789    0.99577    0.79471    1.000
    C615     C        0.82132    0.99543    0.75711    1.000
    C616     C        0.77021    0.99702    0.76878    1.000
    C617     C        0.75701    0.99908    0.81949    1.000
    C618     C        0.79345    0.99983    0.85764    1.000
    C619     C        0.73084    0.99752    0.72845    1.000
    C620     C        0.73802    0.02436    0.68396    1.000
    C621     C        0.70082    0.02713    0.64694    1.000
    X622     C        0.65522    0.00064    0.65276    1.000
    C623     C        0.64818    0.97386    0.69735    1.000
    C624     C        0.68514    0.97244    0.73452    1.000
    O625     O        0.77840    0.00297    0.90743    1.000
    O626     O        0.70997    0.05867    0.60648    1.000
    H627     H        0.89663    0.99425    0.78364    1.000
    H628     H        0.83323    0.99332    0.71865    1.000
    H629     H        0.71806    0.00124    0.82964    1.000
    H630     H        0.77203    0.04538    0.67863    1.000
    H631     H        0.61402    0.95324    0.70329    1.000
    H632     H        0.67812    0.95090    0.76786    1.000
    H633     H        0.74097    0.00404    0.91217    1.000
    H634     H        0.67921    0.06981    0.58789    1.000
    X635     C        0.65490    0.49453    0.15349    1.000
    C636     C        0.64236    0.50065    0.20417    1.000
    C637     C        0.67903    0.50105    0.24166    1.000
    C638     C        0.72987    0.49507    0.23017    1.000
    C639     C        0.74260    0.48843    0.17970    1.000
    C640     C        0.70604    0.48807    0.14163    1.000
    C641     C        0.76944    0.49631    0.27037    1.000
    C642     C        0.76519    0.52844    0.31167    1.000
    C643     C        0.80247    0.53121    0.34863    1.000
    X644     C        0.84523    0.50000    0.34587    1.000
    C645     C        0.84942    0.46801    0.30453    1.000
    C646     C        0.81235    0.46620    0.26748    1.000
    O647     O        0.72056    0.48113    0.09208    1.000
    O648     O        0.79640    0.56708    0.38594    1.000
    H649     H        0.60386    0.50546    0.21513    1.000
    H650     H        0.66729    0.50555    0.27996    1.000
    H651     H        0.78138    0.48435    0.16948    1.000
    H652     H        0.73350    0.55321    0.31454    1.000
    H653     H        0.88119    0.44345    0.30128    1.000
    H654     H        0.81703    0.44039    0.23689    1.000
    H655     H        0.75775    0.47670    0.08741    1.000
    H656     H        0.82751    0.57494    0.40558    1.000
    X657     C        0.15471    0.00100    0.84678    1.000
    C658     C        0.15105    0.03259    0.80523    1.000
    C659     C        0.18847    0.03365    0.76856    1.000
    C660     C        0.23050    0.00201    0.77113    1.000
    C661     C        0.23362    0.96978    0.81264    1.000
    C662     C        0.19667    0.96944    0.85036    1.000
    C663     C        0.27047    0.00257    0.73089    1.000
    C664     C        0.25958    0.01810    0.68189    1.000
    C665     C        0.29654    0.02124    0.64477    1.000
    X666     C        0.34604    0.00489    0.65443    1.000
    C667     C        0.35690    0.98908    0.70334    1.000
    C668     C        0.32017    0.98851    0.74086    1.000
    O669     O        0.20064    0.93677    0.89075    1.000
    O670     O        0.28276    0.04319    0.59970    1.000
    H671     H        0.11952    0.05751    0.80165    1.000
    H672     H        0.18444    0.06018    0.73856    1.000
    H673     H        0.26435    0.94395    0.81568    1.000
    H674     H        0.22214    0.02906    0.67191    1.000
    H675     H        0.39413    0.97677    0.71279    1.000
    H676     H        0.33128    0.97731    0.77790    1.000
    H677     H        0.23168    0.91530    0.89003    1.000
    H678     H        0.31085    0.06175    0.58293    1.000
    X679     C        0.34483    0.50250    0.15397    1.000
    C680     C        0.35740    0.49767    0.20477    1.000
    C681     C        0.32072    0.49804    0.24225    1.000
    C682     C        0.26982    0.50332    0.23059    1.000
    C683     C        0.25706    0.50855    0.17998    1.000
    C684     C        0.29363    0.50830    0.14194    1.000
    C685     C        0.23019    0.50267    0.27075    1.000
    C686     C        0.23501    0.47202    0.31308    1.000
    C687     C        0.19770    0.46961    0.34999    1.000
    X688     C        0.15427    0.49976    0.34611    1.000
    C689     C        0.14938    0.53017    0.30366    1.000
    C690     C        0.18657    0.53165    0.26673    1.000
    O691     O        0.27902    0.51389    0.09224    1.000
    O692     O        0.20446    0.43501    0.38839    1.000
    H693     H        0.39593    0.49335    0.21583    1.000
    H694     H        0.33249    0.49464    0.28065    1.000
    H695     H        0.21826    0.51197    0.16961    1.000
    H696     H        0.26719    0.44801    0.31683    1.000
    H697     H        0.11685    0.55365    0.29938    1.000
    H698     H        0.18137    0.55631    0.23527    1.000
    H699     H        0.24180    0.51796    0.08748    1.000
    H700     H        0.17331    0.42645    0.40769    1.000
    X701     C        0.84467    0.00326    0.15354    1.000
    C702     C        0.85701    0.99674    0.20420    1.000
    C703     C        0.82028    0.99697    0.24161    1.000
    C704     C        0.76956    0.00379    0.23002    1.000
    C705     C        0.75704    0.01082    0.17955    1.000
    C706     C        0.79368    0.01075    0.14159    1.000
    C707     C        0.72986    0.00285    0.27009    1.000
    C708     C        0.73401    0.97092    0.31155    1.000
    C709     C        0.69669    0.96835    0.34841    1.000
    X710     C        0.65392    0.99949    0.34533    1.000
    C711     C        0.64967    0.03117    0.30377    1.000
    C712     C        0.68690    0.03289    0.26689    1.000
    O713     O        0.77941    0.01833    0.09205    1.000
    O714     O        0.70270    0.93267    0.38593    1.000
    H715     H        0.89540    0.99112    0.21519    1.000
    H716     H        0.83189    0.99221    0.27991    1.000
    H717     H        0.71836    0.01552    0.16922    1.000
    H718     H        0.76565    0.94612    0.31463    1.000
    H719     H        0.61765    0.05546    0.30020    1.000
    H720     H        0.68225    0.05853    0.23614    1.000
    H721     H        0.74233    0.02361    0.08734    1.000
    H722     H        0.67150    0.92469    0.40539    1.000
    X723     C        0.65374    0.50133    0.84599    1.000
    C724     C        0.64890    0.53173    0.80366    1.000
    C725     C        0.68616    0.53311    0.76683    1.000
    C726     C        0.72925    0.50305    0.77016    1.000
    C727     C        0.73357    0.47197    0.81241    1.000
    C728     C        0.69673    0.47127    0.85020    1.000
    C729     C        0.76916    0.50402    0.72994    1.000
    C730     C        0.75764    0.51712    0.68039    1.000
    C731     C        0.79445    0.52038    0.64311    1.000
    X732     C        0.84468    0.50667    0.65352    1.000
    C733     C        0.85610    0.49338    0.70306    1.000
    C734     C        0.81938    0.49266    0.74051    1.000
    O735     O        0.70189    0.43968    0.89132    1.000
    O736     O        0.77949    0.53933    0.59701    1.000
    H737     H        0.61654    0.55547    0.79954    1.000
    H738     H        0.68119    0.55864    0.73610    1.000
    H739     H        0.76520    0.44731    0.81598    1.000
    H740     H        0.71972    0.52593    0.67006    1.000
    H741     H        0.89379    0.48314    0.71311    1.000
    H742     H        0.83086    0.48345    0.77800    1.000
    H743     H        0.73363    0.41926    0.89101    1.000
    H744     H        0.80618    0.55907    0.57929    1.000
