# CIF file generated by openbabel 3.1.0, see https://openbabel.org
data_I
_chemical_name_common 'image0'
_cell_length_a 27.9144
_cell_length_b 27.9144
_cell_length_c 6.1655
_cell_angle_alpha 90
_cell_angle_beta 90
_cell_angle_gamma 120
_space_group_name_H-M_alt 'P 1'
_space_group_name_Hall 'P 1'
loop_
    _symmetry_equiv_pos_as_xyz
    x,y,z
loop_
    _atom_site_label
    _atom_site_type_symbol
    _atom_site_fract_x
    _atom_site_fract_y
    _atom_site_fract_z
    _atom_site_occupancy
    Ni1      Ni       0.30485    0.02863    0.71916    1.000
    P1       P        0.42397    0.03900    0.57000    1.000
    O1       O        0.47878    0.09348    0.50180    1.000
    O2       O        0.38754    0.05301    0.73390    1.000
    O3       O        0.39005    0.01154    0.37460    1.000
    N1       N        0.45490    0.00740    0.94650    1.000
    C1       C        0.44640    0.95810    0.09730    1.000
    C2       C        0.51090    0.05620    0.98480    1.000
    C3       C        0.43750    0.98440    0.71610    1.000
    Ni2      Ni       0.97152    0.36196    0.05249    1.000
    P2       P        0.09064    0.37233    0.90333    1.000
    O4       O        0.14545    0.42681    0.83513    1.000
    O5       O        0.05421    0.38634    0.06723    1.000
    O6       O        0.05672    0.34487    0.70793    1.000
    N2       N        0.12157    0.34073    0.27983    1.000
    C4       C        0.11307    0.29143    0.43063    1.000
    C5       C        0.17757    0.38953    0.31813    1.000
    C6       C        0.10417    0.31773    0.04943    1.000
    Ni3      Ni       0.63818    0.69530    0.38583    1.000
    P3       P        0.75730    0.70567    0.23667    1.000
    O7       O        0.81211    0.76015    0.16847    1.000
    O8       O        0.72087    0.71968    0.40057    1.000
    O9       O        0.72338    0.67821    0.04127    1.000
    N3       N        0.78823    0.67407    0.61317    1.000
    C7       C        0.77973    0.62477    0.76397    1.000
    C8       C        0.84423    0.72287    0.65147    1.000
    C9       C        0.77083    0.65107    0.38277    1.000
    Ni4      Ni       0.97137    0.27622    0.71916    1.000
    P4       P        0.96100    0.38497    0.57000    1.000
    O10      O        0.90652    0.38530    0.50180    1.000
    O11      O        0.94699    0.33453    0.73390    1.000
    O12      O        0.98846    0.37851    0.37460    1.000
    N4       N        0.99260    0.44750    0.94650    1.000
    C10      C        0.04190    0.48830    0.09730    1.000
    C11      C        0.94380    0.45470    0.98480    1.000
    C12      C        0.01560    0.45310    0.71610    1.000
    Ni5      Ni       0.63804    0.60955    0.05249    1.000
    P5       P        0.62767    0.71830    0.90333    1.000
    O13      O        0.57319    0.71863    0.83513    1.000
    O14      O        0.61366    0.66786    0.06723    1.000
    O15      O        0.65513    0.71184    0.70793    1.000
    N5       N        0.65927    0.78083    0.27983    1.000
    C13      C        0.70857    0.82163    0.43063    1.000
    C14      C        0.61047    0.78803    0.31813    1.000
    C15      C        0.68227    0.78643    0.04943    1.000
    Ni6      Ni       0.30470    0.94289    0.38583    1.000
    P6       P        0.29433    0.05164    0.23667    1.000
    O16      O        0.23985    0.05197    0.16847    1.000
    O17      O        0.28032    0.00120    0.40057    1.000
    O18      O        0.32179    0.04518    0.04127    1.000
    N6       N        0.32593    0.11417    0.61317    1.000
    C16      C        0.37523    0.15497    0.76397    1.000
    C17      C        0.27713    0.12137    0.65147    1.000
    C18      C        0.34893    0.11977    0.38277    1.000
    Ni7      Ni       0.72378    0.69515    0.71916    1.000
    P7       P        0.61503    0.57603    0.57000    1.000
    O19      O        0.61470    0.52122    0.50180    1.000
    O20      O        0.66547    0.61246    0.73390    1.000
    O21      O        0.62149    0.60995    0.37460    1.000
    N7       N        0.55250    0.54510    0.94650    1.000
    C19      C        0.51170    0.55360    0.09730    1.000
    C20      C        0.54530    0.48910    0.98480    1.000
    C21      C        0.54690    0.56250    0.71610    1.000
    Ni8      Ni       0.39045    0.02848    0.05249    1.000
    P8       P        0.28170    0.90936    0.90333    1.000
    O22      O        0.28137    0.85455    0.83513    1.000
    O23      O        0.33214    0.94579    0.06723    1.000
    O24      O        0.28816    0.94328    0.70793    1.000
    N8       N        0.21917    0.87843    0.27983    1.000
    C22      C        0.17837    0.88693    0.43063    1.000
    C23      C        0.21197    0.82243    0.31813    1.000
    C24      C        0.21357    0.89583    0.04943    1.000
    Ni9      Ni       0.05711    0.36182    0.38583    1.000
    P9       P        0.94836    0.24270    0.23667    1.000
    O25      O        0.94803    0.18789    0.16847    1.000
    O26      O        0.99880    0.27913    0.40057    1.000
    O27      O        0.95482    0.27662    0.04127    1.000
    N9       N        0.88583    0.21177    0.61317    1.000
    C25      C        0.84503    0.22027    0.76397    1.000
    C26      C        0.87863    0.15577    0.65147    1.000
    C27      C        0.88023    0.22917    0.38277    1.000
    Ni10     Ni       0.69515    0.97137    0.28084    1.000
    P10      P        0.57603    0.96100    0.43000    1.000
    O28      O        0.52122    0.90652    0.49820    1.000
    O29      O        0.61246    0.94699    0.26610    1.000
    O30      O        0.60995    0.98846    0.62540    1.000
    N10      N        0.54510    0.99260    0.05350    1.000
    C28      C        0.55360    0.04190    0.90270    1.000
    C29      C        0.48910    0.94380    0.01520    1.000
    C30      C        0.56250    0.01560    0.28390    1.000
    Ni11     Ni       0.36182    0.30470    0.61417    1.000
    P11      P        0.24270    0.29433    0.76333    1.000
    O31      O        0.18789    0.23985    0.83153    1.000
    O32      O        0.27913    0.28032    0.59943    1.000
    O33      O        0.27662    0.32179    0.95873    1.000
    N11      N        0.21177    0.32593    0.38683    1.000
    C31      C        0.22027    0.37523    0.23603    1.000
    C32      C        0.15577    0.27713    0.34853    1.000
    C33      C        0.22917    0.34893    0.61723    1.000
    Ni12     Ni       0.02848    0.63804    0.94751    1.000
    P12      P        0.90936    0.62767    0.09667    1.000
    O34      O        0.85455    0.57319    0.16487    1.000
    O35      O        0.94579    0.61366    0.93277    1.000
    O36      O        0.94328    0.65513    0.29207    1.000
    N12      N        0.87843    0.65927    0.72017    1.000
    C34      C        0.88693    0.70857    0.56937    1.000
    C35      C        0.82243    0.61047    0.68187    1.000
    C36      C        0.89583    0.68227    0.95057    1.000
    Ni13     Ni       0.02863    0.72378    0.28084    1.000
    P13      P        0.03900    0.61503    0.43000    1.000
    O37      O        0.09348    0.61470    0.49820    1.000
    O38      O        0.05301    0.66547    0.26610    1.000
    O39      O        0.01154    0.62149    0.62540    1.000
    N13      N        0.00740    0.55250    0.05350    1.000
    C37      C        0.95810    0.51170    0.90270    1.000
    C38      C        0.05620    0.54530    0.01520    1.000
    C39      C        0.98440    0.54690    0.28390    1.000
    Ni14     Ni       0.69530    0.05711    0.61417    1.000
    P14      P        0.70567    0.94836    0.76333    1.000
    O40      O        0.76015    0.94803    0.83153    1.000
    O41      O        0.71968    0.99880    0.59943    1.000
    O42      O        0.67821    0.95482    0.95873    1.000
    N14      N        0.67407    0.88583    0.38683    1.000
    C40      C        0.62477    0.84503    0.23603    1.000
    C41      C        0.72287    0.87863    0.34853    1.000
    C42      C        0.65107    0.88023    0.61723    1.000
    Ni15     Ni       0.36196    0.39045    0.94751    1.000
    P15      P        0.37233    0.28170    0.09667    1.000
    O43      O        0.42681    0.28137    0.16487    1.000
    O44      O        0.38634    0.33214    0.93277    1.000
    O45      O        0.34487    0.28816    0.29207    1.000
    N15      N        0.34073    0.21917    0.72017    1.000
    C43      C        0.29143    0.17837    0.56937    1.000
    C44      C        0.38953    0.21197    0.68187    1.000
    C45      C        0.31773    0.21357    0.95057    1.000
    Ni16     Ni       0.27622    0.30485    0.28084    1.000
    P16      P        0.38497    0.42397    0.43000    1.000
    O46      O        0.38530    0.47878    0.49820    1.000
    O47      O        0.33453    0.38754    0.26610    1.000
    O48      O        0.37851    0.39005    0.62540    1.000
    N16      N        0.44750    0.45490    0.05350    1.000
    C46      C        0.48830    0.44640    0.90270    1.000
    C47      C        0.45470    0.51090    0.01520    1.000
    C48      C        0.45310    0.43750    0.28390    1.000
    Ni17     Ni       0.94289    0.63818    0.61417    1.000
    P17      P        0.05164    0.75730    0.76333    1.000
    O49      O        0.05197    0.81211    0.83153    1.000
    O50      O        0.00120    0.72087    0.59943    1.000
    O51      O        0.04518    0.72338    0.95873    1.000
    N17      N        0.11417    0.78823    0.38683    1.000
    C49      C        0.15497    0.77973    0.23603    1.000
    C50      C        0.12137    0.84423    0.34853    1.000
    C51      C        0.11977    0.77083    0.61723    1.000
    Ni18     Ni       0.60955    0.97152    0.94751    1.000
    P18      P        0.71830    0.09064    0.09667    1.000
    O52      O        0.71863    0.14545    0.16487    1.000
    O53      O        0.66786    0.05421    0.93277    1.000
    O54      O        0.71184    0.05672    0.29207    1.000
    N18      N        0.78083    0.12157    0.72017    1.000
    C52      C        0.82163    0.11307    0.56937    1.000
    C53      C        0.78803    0.17757    0.68187    1.000
    C54      C        0.78643    0.10417    0.95057    1.000
