# CIF file generated by openbabel 3.1.0, see https://openbabel.org
data_I
_chemical_name_common 'BETDUB_clean'
_cell_length_a 12.699
_cell_length_b 14.2602
_cell_length_c 15.9462
_cell_angle_alpha 96.8968
_cell_angle_beta 113.465
_cell_angle_gamma 90
_space_group_name_H-M_alt 'P 1'
_space_group_name_Hall 'P 1'
loop_
    _symmetry_equiv_pos_as_xyz
    x,y,z
loop_
    _atom_site_label
    _atom_site_type_symbol
    _atom_site_fract_x
    _atom_site_fract_y
    _atom_site_fract_z
    _atom_site_occupancy
    Eu1      Eu       0.38488    0.45756    0.37104    1.000
    Eu2      Eu       0.01384    0.04244    0.62896    1.000
    Eu3      Eu       0.61512    0.54244    0.62896    1.000
    Eu4      Eu       0.98616    0.95756    0.37104    1.000
    H1       H        0.15130    0.59330    0.08360    1.000
    H2       H        0.11070    0.64230    0.94240    1.000
    H3       H        0.43230    0.59850    0.97060    1.000
    H4       H        0.47030    0.54290    0.10880    1.000
    H5       H        0.15700    0.66400    0.82400    1.000
    H6       H        0.36770    0.57260    0.68620    1.000
    H7       H        0.16090    0.77480    0.71800    1.000
    H8       H        0.16870    0.69890    0.46920    1.000
    H9       H        0.06770    0.90670    0.91640    1.000
    H10      H        0.16830    0.85770    0.05760    1.000
    H11      H        0.46170    0.90150    0.02940    1.000
    H12      H        0.36150    0.95710    0.89120    1.000
    H13      H        0.33300    0.83600    0.17600    1.000
    H14      H        0.68150    0.92740    0.31380    1.000
    H15      H        0.44290    0.72520    0.28200    1.000
    H16      H        0.69950    0.80110    0.53080    1.000
    H17      H        0.84870    0.40670    0.91640    1.000
    H18      H        0.88930    0.35770    0.05760    1.000
    H19      H        0.56770    0.40150    0.02940    1.000
    H20      H        0.52970    0.45710    0.89120    1.000
    H21      H        0.84300    0.33600    0.17600    1.000
    H22      H        0.63230    0.42740    0.31380    1.000
    H23      H        0.83910    0.22520    0.28200    1.000
    H24      H        0.83130    0.30110    0.53080    1.000
    H25      H        0.93230    0.09330    0.08360    1.000
    H26      H        0.83170    0.14230    0.94240    1.000
    H27      H        0.53830    0.09850    0.97060    1.000
    H28      H        0.63850    0.04290    0.10880    1.000
    H29      H        0.66700    0.16400    0.82400    1.000
    H30      H        0.31850    0.07260    0.68620    1.000
    H31      H        0.55710    0.27480    0.71800    1.000
    H32      H        0.30050    0.19890    0.46920    1.000
    C1       C        0.34430    0.52390    0.20020    1.000
    C2       C        0.31700    0.56480    0.11100    1.000
    C3       C        0.20790    0.59390    0.06060    1.000
    C4       C        0.18410    0.62350    0.97620    1.000
    C5       C        0.26570    0.62610    0.94080    1.000
    C6       C        0.37490    0.59660    0.99280    1.000
    C7       C        0.39820    0.56470    0.07620    1.000
    C8       C        0.23620    0.65400    0.84720    1.000
    C9       C        0.31590    0.56490    0.50780    1.000
    C10      C        0.27440    0.62510    0.56840    1.000
    C11      C        0.31220    0.61550    0.66120    1.000
    C12      C        0.26850    0.66890    0.71720    1.000
    C13      C        0.19100    0.73830    0.68140    1.000
    C14      C        0.15940    0.75150    0.58840    1.000
    C15      C        0.19590    0.69320    0.53160    1.000
    C16      C        0.07990    0.82790    0.54880    1.000
    C17      C        0.14410    0.97610    0.79980    1.000
    C18      C        0.20600    0.93520    0.88900    1.000
    C19      C        0.14730    0.90610    0.93940    1.000
    C20      C        0.20790    0.87650    0.02380    1.000
    C21      C        0.32490    0.87390    0.05920    1.000
    C22      C        0.38210    0.90340    0.00720    1.000
    C23      C        0.32200    0.93530    0.92380    1.000
    C24      C        0.38900    0.84600    0.15280    1.000
    C25      C        0.80810    0.93510    0.49220    1.000
    C26      C        0.70600    0.87490    0.43160    1.000
    C27      C        0.65100    0.88450    0.33880    1.000
    C28      C        0.55130    0.83110    0.28280    1.000
    C29      C        0.50960    0.76170    0.31860    1.000
    C30      C        0.57100    0.74850    0.41160    1.000
    C31      C        0.66430    0.80680    0.46840    1.000
    C32      C        0.53110    0.67210    0.45120    1.000
    C33      C        0.65570    0.47610    0.79980    1.000
    C34      C        0.68300    0.43520    0.88900    1.000
    C35      C        0.79210    0.40610    0.93940    1.000
    C36      C        0.81590    0.37650    0.02380    1.000
    C37      C        0.73430    0.37390    0.05920    1.000
    C38      C        0.62510    0.40340    0.00720    1.000
    C39      C        0.60180    0.43530    0.92380    1.000
    C40      C        0.76380    0.34600    0.15280    1.000
    C41      C        0.68410    0.43510    0.49220    1.000
    C42      C        0.72560    0.37490    0.43160    1.000
    C43      C        0.68780    0.38450    0.33880    1.000
    C44      C        0.73150    0.33110    0.28280    1.000
    C45      C        0.80900    0.26170    0.31860    1.000
    C46      C        0.84060    0.24850    0.41160    1.000
    C47      C        0.80410    0.30680    0.46840    1.000
    C48      C        0.92010    0.17210    0.45120    1.000
    C49      C        0.85590    0.02390    0.20020    1.000
    C50      C        0.79400    0.06480    0.11100    1.000
    C51      C        0.85270    0.09390    0.06060    1.000
    C52      C        0.79210    0.12350    0.97620    1.000
    C53      C        0.67510    0.12610    0.94080    1.000
    C54      C        0.61790    0.09660    0.99280    1.000
    C55      C        0.67800    0.06470    0.07620    1.000
    C56      C        0.61100    0.15400    0.84720    1.000
    C57      C        0.19190    0.06490    0.50780    1.000
    C58      C        0.29400    0.12510    0.56840    1.000
    C59      C        0.34900    0.11550    0.66120    1.000
    C60      C        0.44870    0.16890    0.71720    1.000
    C61      C        0.49040    0.23830    0.68140    1.000
    C62      C        0.42900    0.25150    0.58840    1.000
    C63      C        0.33570    0.19320    0.53160    1.000
    C64      C        0.46890    0.32790    0.54880    1.000
    N1       N        0.30370    0.65010    0.80940    1.000
    N2       N        0.49430    0.84990    0.19060    1.000
    N3       N        0.69630    0.34990    0.19060    1.000
    N4       N        0.50570    0.15010    0.80940    1.000
    O1       O        0.26280    0.52000    0.22840    1.000
    O2       O        0.44140    0.50040    0.24660    1.000
    O3       O        0.41420    0.52900    0.54040    1.000
    O4       O        0.25330    0.54490    0.42400    1.000
    O5       O        0.05610    0.83790    0.46720    1.000
    O6       O        0.04410    0.87690    0.60280    1.000
    O7       O        0.03440    0.98000    0.77160    1.000
    O8       O        0.19480    0.99960    0.75340    1.000
    O9       O        0.87380    0.97100    0.45960    1.000
    O10      O        0.82930    0.95510    0.57600    1.000
    O11      O        0.58890    0.66210    0.53280    1.000
    O12      O        0.44130    0.62310    0.39720    1.000
    O13      O        0.73720    0.48000    0.77160    1.000
    O14      O        0.55860    0.49960    0.75340    1.000
    O15      O        0.58580    0.47100    0.45960    1.000
    O16      O        0.74670    0.45510    0.57600    1.000
    O17      O        0.94390    0.16210    0.53280    1.000
    O18      O        0.95590    0.12310    0.39720    1.000
    O19      O        0.96560    0.02000    0.22840    1.000
    O20      O        0.80520    0.00040    0.24660    1.000
    O21      O        0.12620    0.02900    0.54040    1.000
    O22      O        0.17070    0.04490    0.42400    1.000
    O23      O        0.41110    0.33790    0.46720    1.000
    O24      O        0.55870    0.37690    0.60280    1.000
