# CIF file generated by openbabel 3.1.0, see https://openbabel.org
data_I
_chemical_name_common 'image0'
_cell_length_a 9.0356
_cell_length_b 16.6644
_cell_length_c 17.2419
_cell_angle_alpha 117.194
_cell_angle_beta 98.948
_cell_angle_gamma 93.947
_space_group_name_H-M_alt 'P 1'
_space_group_name_Hall 'P 1'
loop_
    _symmetry_equiv_pos_as_xyz
    x,y,z
loop_
    _atom_site_label
    _atom_site_type_symbol
    _atom_site_fract_x
    _atom_site_fract_y
    _atom_site_fract_z
    _atom_site_occupancy
    Cd1      Cd       0.86865    0.01431    0.30462    1.000
    Cd2      Cd       0.30956    0.67030    0.68215    1.000
    Cd3      Cd       0.94560    0.28648    0.93772    1.000
    C1       C        0.60670    0.85210    0.27250    1.000
    H1       H        0.56160    0.84570    0.21720    1.000
    C2       C        0.75370    0.88920    0.39340    1.000
    H2       H        0.83720    0.91710    0.44070    1.000
    C3       C        0.40760    0.75060    0.28550    1.000
    H3       H        0.34280    0.75310    0.23650    1.000
    H4       H        0.35500    0.76860    0.33440    1.000
    C4       C        0.50990    0.53520    0.17610    1.000
    C5       C        0.57920    0.47010    0.10640    1.000
    C6       C        0.57490    0.38100    0.08950    1.000
    H5       H        0.51960    0.35890    0.11890    1.000
    C7       C        0.65240    0.32480    0.02910    1.000
    H6       H        0.64780    0.26450    0.01820    1.000
    C8       C        0.73340    0.43860    0.99970    1.000
    H7       H        0.78580    0.45860    0.96780    1.000
    C9       C        0.65880    0.49920    0.05950    1.000
    H8       H        0.66220    0.55870    0.06820    1.000
    C10      C        0.42410    0.60150    0.29320    1.000
    C11      C        0.37720    0.62470    0.37870    1.000
    C12      C        0.45330    0.70050    0.45610    1.000
    H9       H        0.52520    0.74220    0.45460    1.000
    C13      C        0.41990    0.71270    0.53530    1.000
    H10      H        0.47270    0.76320    0.58750    1.000
    C14      C        0.24080    0.58520    0.46660    1.000
    H11      H        0.16640    0.54590    0.46940    1.000
    C15      C        0.26900    0.56770    0.38430    1.000
    H12      H        0.21410    0.51710    0.33290    1.000
    C16      C        0.79400    0.98310    0.13220    1.000
    C17      C        0.47520    0.82770    0.82290    1.000
    C18      C        0.81670    0.12670    0.93490    1.000
    C19      C        0.74240    0.98160    0.04410    1.000
    C20      C        0.63350    0.90940    0.97680    1.000
    H13      H        0.59340    0.86260    0.98640    1.000
    C21      C        0.58590    0.90830    0.89520    1.000
    C22      C        0.64570    0.97810    0.88160    1.000
    H14      H        0.61390    0.97700    0.82710    1.000
    C23      C        0.75320    0.05010    0.94850    1.000
    C24      C        0.79960    0.05100    0.02910    1.000
    H15      H        0.87060    0.09930    0.07410    1.000
    C25      C        0.97180    0.16240    0.47320    1.000
    C26      C        0.98170    0.32890    0.80090    1.000
    C27      C        0.18390    0.49620    0.64950    1.000
    C28      C        0.01270    0.24920    0.56070    1.000
    C29      C        0.98230    0.25020    0.63740    1.000
    H16      H        0.93840    0.19660    0.63460    1.000
    C30      C        0.01610    0.33010    0.71830    1.000
    C31      C        0.08180    0.40980    0.72250    1.000
    H17      H        0.10330    0.46370    0.77650    1.000
    C32      C        0.11630    0.41010    0.64630    1.000
    C33      C        0.08000    0.32940    0.56620    1.000
    H18      H        0.10130    0.32910    0.51500    1.000
    N1       N        0.73920    0.90270    0.32080    1.000
    N2       N        0.64250    0.83450    0.39180    1.000
    N3       N        0.54810    0.81230    0.31350    1.000
    N4       N        0.43860    0.65850    0.25740    1.000
    N5       N        0.49510    0.61600    0.18230    1.000
    N6       N        0.46520    0.52270    0.24240    1.000
    N7       N        0.73480    0.35270    0.98480    1.000
    N8       N        0.31710    0.65690    0.54220    1.000
    O1       O        0.74960    0.91740    0.14280    1.000
    O2       O        0.87830    0.05360    0.19440    1.000
    O3       O        0.90410    0.19390    0.99980    1.000
    O4       O        0.77900    0.12560    0.86050    1.000
    O5       O        0.45650    0.81680    0.74390    1.000
    O6       O        0.40990    0.77140    0.83910    1.000
    O7       O        0.99110    0.16570    0.40330    1.000
    O8       O        0.92060    0.09060    0.47130    1.000
    O9       O        0.95230    0.25160    0.79690    1.000
    O10      O        0.98210    0.40120    0.86930    1.000
    O11      O        0.20010    0.57060    0.72040    1.000
    O12      O        0.22380    0.49240    0.58220    1.000
    Cd4      Cd       0.13135    0.98569    0.69538    1.000
    Cd5      Cd       0.69044    0.32970    0.31785    1.000
    Cd6      Cd       0.05440    0.71352    0.06228    1.000
    C34      C        0.39330    0.14790    0.72750    1.000
    H19      H        0.43840    0.15430    0.78280    1.000
    C35      C        0.24630    0.11080    0.60660    1.000
    H20      H        0.16280    0.08290    0.55930    1.000
    C36      C        0.59240    0.24940    0.71450    1.000
    H21      H        0.65720    0.24690    0.76350    1.000
    H22      H        0.64500    0.23140    0.66560    1.000
    C37      C        0.49010    0.46480    0.82390    1.000
    C38      C        0.42080    0.52990    0.89360    1.000
    C39      C        0.42510    0.61900    0.91050    1.000
    H23      H        0.48040    0.64110    0.88110    1.000
    C40      C        0.34760    0.67520    0.97090    1.000
    H24      H        0.35220    0.73550    0.98180    1.000
    C41      C        0.26660    0.56140    0.00030    1.000
    H25      H        0.21420    0.54140    0.03220    1.000
    C42      C        0.34120    0.50080    0.94050    1.000
    H26      H        0.33780    0.44130    0.93180    1.000
    C43      C        0.57590    0.39850    0.70680    1.000
    C44      C        0.62280    0.37530    0.62130    1.000
    C45      C        0.54670    0.29950    0.54390    1.000
    H27      H        0.47480    0.25780    0.54540    1.000
    C46      C        0.58010    0.28730    0.46470    1.000
    H28      H        0.52730    0.23680    0.41250    1.000
    C47      C        0.75920    0.41480    0.53340    1.000
    H29      H        0.83360    0.45410    0.53060    1.000
    C48      C        0.73100    0.43230    0.61570    1.000
    H30      H        0.78590    0.48290    0.66710    1.000
    C49      C        0.20600    0.01690    0.86780    1.000
    C50      C        0.52480    0.17230    0.17710    1.000
    C51      C        0.18330    0.87330    0.06510    1.000
    C52      C        0.25760    0.01840    0.95590    1.000
    C53      C        0.36650    0.09060    0.02320    1.000
    H31      H        0.40660    0.13740    0.01360    1.000
    C54      C        0.41410    0.09170    0.10480    1.000
    C55      C        0.35430    0.02190    0.11840    1.000
    H32      H        0.38610    0.02300    0.17290    1.000
    C56      C        0.24680    0.94990    0.05150    1.000
    C57      C        0.20040    0.94900    0.97090    1.000
    H33      H        0.12940    0.90070    0.92590    1.000
    C58      C        0.02820    0.83760    0.52680    1.000
    C59      C        0.01830    0.67110    0.19910    1.000
    C60      C        0.81610    0.50380    0.35050    1.000
    C61      C        0.98730    0.75080    0.43930    1.000
    C62      C        0.01770    0.74980    0.36260    1.000
    H34      H        0.06160    0.80340    0.36540    1.000
    C63      C        0.98390    0.66990    0.28170    1.000
    C64      C        0.91820    0.59020    0.27750    1.000
    H35      H        0.89670    0.53630    0.22350    1.000
    C65      C        0.88370    0.58990    0.35370    1.000
    C66      C        0.92000    0.67060    0.43380    1.000
    H36      H        0.89870    0.67090    0.48500    1.000
    N9       N        0.26080    0.09730    0.67920    1.000
    N10      N        0.35750    0.16550    0.60820    1.000
    N11      N        0.45190    0.18770    0.68650    1.000
    N12      N        0.56140    0.34150    0.74260    1.000
    N13      N        0.50490    0.38400    0.81770    1.000
    N14      N        0.53480    0.47730    0.75760    1.000
    N15      N        0.26520    0.64730    0.01520    1.000
    N16      N        0.68290    0.34310    0.45780    1.000
    O13      O        0.25040    0.08260    0.85720    1.000
    O14      O        0.12170    0.94640    0.80560    1.000
    O15      O        0.09590    0.80610    0.00020    1.000
    O16      O        0.22100    0.87440    0.13950    1.000
    O17      O        0.54350    0.18320    0.25610    1.000
    O18      O        0.59010    0.22860    0.16090    1.000
    O19      O        0.00890    0.83430    0.59670    1.000
    O20      O        0.07940    0.90940    0.52870    1.000
    O21      O        0.04770    0.74840    0.20310    1.000
    O22      O        0.01790    0.59880    0.13070    1.000
    O23      O        0.79990    0.42940    0.27960    1.000
    O24      O        0.77620    0.50760    0.41780    1.000
