# CIF file generated by openbabel 3.1.0, see https://openbabel.org
data_I
_chemical_name_common 'image0'
_cell_length_a 15.5555
_cell_length_b 16.5429
_cell_length_c 12.3964
_cell_angle_alpha 90
_cell_angle_beta 91.906
_cell_angle_gamma 90
_space_group_name_H-M_alt 'P 1'
_space_group_name_Hall 'P 1'
loop_
    _symmetry_equiv_pos_as_xyz
    x,y,z
loop_
    _atom_site_label
    _atom_site_type_symbol
    _atom_site_fract_x
    _atom_site_fract_y
    _atom_site_fract_z
    _atom_site_occupancy
    Er1      Er       0.11801    0.18608    0.90641    1.000
    S1       S        0.10482    0.21854    0.66307    1.000
    S2       S        0.18953    0.35092    0.07090    1.000
    O1       O        0.05650    0.06270    0.89930    1.000
    O2       O        0.10070    0.14030    0.72430    1.000
    O3       O        0.08270    0.14640    0.07350    1.000
    O4       O        0.02200    0.23280    0.60670    1.000
    O5       O        0.13760    0.30510    0.99340    1.000
    O6       O        0.11920    0.28050    0.74870    1.000
    O7       O        0.07450    0.04290    0.18340    1.000
    O8       O        0.17400    0.21800    0.58850    1.000
    O9       O        0.26260    0.38840    0.01890    1.000
    C1       C        0.06600    0.07350    0.09120    1.000
    O10      O        0.13480    0.40600    0.12280    1.000
    O11      O        0.23570    0.29630    0.14540    1.000
    C2       C        0.04380    0.01850    0.99620    1.000
    H1       H        0.08560    0.97420    0.99820    1.000
    Er2      Er       0.61801    0.68608    0.90641    1.000
    S3       S        0.60482    0.71854    0.66307    1.000
    S4       S        0.68953    0.85092    0.07090    1.000
    O12      O        0.55650    0.56270    0.89930    1.000
    O13      O        0.60070    0.64030    0.72430    1.000
    O14      O        0.58270    0.64640    0.07350    1.000
    O15      O        0.52200    0.73280    0.60670    1.000
    O16      O        0.63760    0.80510    0.99340    1.000
    O17      O        0.61920    0.78050    0.74870    1.000
    O18      O        0.57450    0.54290    0.18340    1.000
    O19      O        0.67400    0.71800    0.58850    1.000
    O20      O        0.76260    0.88840    0.01890    1.000
    C3       C        0.56600    0.57350    0.09120    1.000
    O21      O        0.63480    0.90600    0.12280    1.000
    O22      O        0.73570    0.79630    0.14540    1.000
    C4       C        0.54380    0.51850    0.99620    1.000
    H2       H        0.58560    0.47420    0.99820    1.000
    Er3      Er       0.88199    0.18608    0.59359    1.000
    S5       S        0.89518    0.21854    0.83693    1.000
    S6       S        0.81047    0.35092    0.42910    1.000
    O23      O        0.94350    0.06270    0.60070    1.000
    O24      O        0.89930    0.14030    0.77570    1.000
    O25      O        0.91730    0.14640    0.42650    1.000
    O26      O        0.97800    0.23280    0.89330    1.000
    O27      O        0.86240    0.30510    0.50660    1.000
    O28      O        0.88080    0.28050    0.75130    1.000
    O29      O        0.92550    0.04290    0.31660    1.000
    O30      O        0.82600    0.21800    0.91150    1.000
    O31      O        0.73740    0.38840    0.48110    1.000
    C5       C        0.93400    0.07350    0.40880    1.000
    O32      O        0.86520    0.40600    0.37720    1.000
    O33      O        0.76430    0.29630    0.35460    1.000
    C6       C        0.95620    0.01850    0.50380    1.000
    H3       H        0.91440    0.97420    0.50180    1.000
    Er4      Er       0.38199    0.68608    0.59359    1.000
    S7       S        0.39518    0.71854    0.83693    1.000
    S8       S        0.31047    0.85092    0.42910    1.000
    O34      O        0.44350    0.56270    0.60070    1.000
    O35      O        0.39930    0.64030    0.77570    1.000
    O36      O        0.41730    0.64640    0.42650    1.000
    O37      O        0.47800    0.73280    0.89330    1.000
    O38      O        0.36240    0.80510    0.50660    1.000
    O39      O        0.38080    0.78050    0.75130    1.000
    O40      O        0.42550    0.54290    0.31660    1.000
    O41      O        0.32600    0.71800    0.91150    1.000
    O42      O        0.23740    0.88840    0.48110    1.000
    C7       C        0.43400    0.57350    0.40880    1.000
    O43      O        0.36520    0.90600    0.37720    1.000
    O44      O        0.26430    0.79630    0.35460    1.000
    C8       C        0.45620    0.51850    0.50380    1.000
    H4       H        0.41440    0.47420    0.50180    1.000
    Er5      Er       0.88199    0.81392    0.09359    1.000
    S9       S        0.89518    0.78146    0.33693    1.000
    S10      S        0.81047    0.64908    0.92910    1.000
    O45      O        0.94350    0.93730    0.10070    1.000
    O46      O        0.89930    0.85970    0.27570    1.000
    O47      O        0.91730    0.85360    0.92650    1.000
    O48      O        0.97800    0.76720    0.39330    1.000
    O49      O        0.86240    0.69490    0.00660    1.000
    O50      O        0.88080    0.71950    0.25130    1.000
    O51      O        0.92550    0.95710    0.81660    1.000
    O52      O        0.82600    0.78200    0.41150    1.000
    O53      O        0.73740    0.61160    0.98110    1.000
    C9       C        0.93400    0.92650    0.90880    1.000
    O54      O        0.86520    0.59400    0.87720    1.000
    O55      O        0.76430    0.70370    0.85460    1.000
    C10      C        0.95620    0.98150    0.00380    1.000
    H5       H        0.91440    0.02580    0.00180    1.000
    Er6      Er       0.38199    0.31392    0.09359    1.000
    S11      S        0.39518    0.28146    0.33693    1.000
    S12      S        0.31047    0.14908    0.92910    1.000
    O56      O        0.44350    0.43730    0.10070    1.000
    O57      O        0.39930    0.35970    0.27570    1.000
    O58      O        0.41730    0.35360    0.92650    1.000
    O59      O        0.47800    0.26720    0.39330    1.000
    O60      O        0.36240    0.19490    0.00660    1.000
    O61      O        0.38080    0.21950    0.25130    1.000
    O62      O        0.42550    0.45710    0.81660    1.000
    O63      O        0.32600    0.28200    0.41150    1.000
    O64      O        0.23740    0.11160    0.98110    1.000
    C11      C        0.43400    0.42650    0.90880    1.000
    O65      O        0.36520    0.09400    0.87720    1.000
    O66      O        0.26430    0.20370    0.85460    1.000
    C12      C        0.45620    0.48150    0.00380    1.000
    H6       H        0.41440    0.52580    0.00180    1.000
    Er7      Er       0.11801    0.81392    0.40641    1.000
    S13      S        0.10482    0.78146    0.16307    1.000
    S14      S        0.18953    0.64908    0.57090    1.000
    O67      O        0.05650    0.93730    0.39930    1.000
    O68      O        0.10070    0.85970    0.22430    1.000
    O69      O        0.08270    0.85360    0.57350    1.000
    O70      O        0.02200    0.76720    0.10670    1.000
    O71      O        0.13760    0.69490    0.49340    1.000
    O72      O        0.11920    0.71950    0.24870    1.000
    O73      O        0.07450    0.95710    0.68340    1.000
    O74      O        0.17400    0.78200    0.08850    1.000
    O75      O        0.26260    0.61160    0.51890    1.000
    C13      C        0.06600    0.92650    0.59120    1.000
    O76      O        0.13480    0.59400    0.62280    1.000
    O77      O        0.23570    0.70370    0.64540    1.000
    C14      C        0.04380    0.98150    0.49620    1.000
    H7       H        0.08560    0.02580    0.49820    1.000
    Er8      Er       0.61801    0.31392    0.40641    1.000
    S15      S        0.60482    0.28146    0.16307    1.000
    S16      S        0.68953    0.14908    0.57090    1.000
    O78      O        0.55650    0.43730    0.39930    1.000
    O79      O        0.60070    0.35970    0.22430    1.000
    O80      O        0.58270    0.35360    0.57350    1.000
    O81      O        0.52200    0.26720    0.10670    1.000
    O82      O        0.63760    0.19490    0.49340    1.000
    O83      O        0.61920    0.21950    0.24870    1.000
    O84      O        0.57450    0.45710    0.68340    1.000
    O85      O        0.67400    0.28200    0.08850    1.000
    O86      O        0.76260    0.11160    0.51890    1.000
    C15      C        0.56600    0.42650    0.59120    1.000
    O87      O        0.63480    0.09400    0.62280    1.000
    O88      O        0.73570    0.20370    0.64540    1.000
    C16      C        0.54380    0.48150    0.49620    1.000
    H8       H        0.58560    0.52580    0.49820    1.000
    Fe1      Fe       0.00000    0.04728    0.75000    1.000
    Fe2      Fe       0.50000    0.54728    0.75000    1.000
    Fe3      Fe       0.00000    0.95272    0.25000    1.000
    Fe4      Fe       0.50000    0.45272    0.25000    1.000
