# CIF file generated by openbabel 3.1.0, see https://openbabel.org
data_I
_chemical_name_common 'image0'
_cell_length_a 25.8978
_cell_length_b 25.8978
_cell_length_c 6.2785
_cell_angle_alpha 90
_cell_angle_beta 90
_cell_angle_gamma 120
_space_group_name_H-M_alt 'P 1'
_space_group_name_Hall 'P 1'
loop_
    _symmetry_equiv_pos_as_xyz
    x,y,z
loop_
    _atom_site_label
    _atom_site_type_symbol
    _atom_site_fract_x
    _atom_site_fract_y
    _atom_site_fract_z
    _atom_site_occupancy
    Cu1      Cu       0.38740    0.34916    0.17510    1.000
    O1       O        0.35440    0.30040    0.42650    1.000
    O2       O        0.28990    0.22550    0.63330    1.000
    O3       O        0.36240    0.27810    0.01190    1.000
    C1       C        0.32840    0.24780    0.48500    1.000
    C2       C        0.32890    0.20820    0.30410    1.000
    C3       C        0.34790    0.22250    0.09070    1.000
    C4       C        0.35460    0.18380    0.97590    1.000
    Cu2      Cu       0.05407    0.68249    0.50843    1.000
    O4       O        0.02107    0.63373    0.75983    1.000
    O5       O        0.95657    0.55883    0.96663    1.000
    O6       O        0.02907    0.61143    0.34523    1.000
    C5       C        0.99507    0.58113    0.81833    1.000
    C6       C        0.99557    0.54153    0.63743    1.000
    C7       C        0.01457    0.55583    0.42403    1.000
    C8       C        0.02127    0.51713    0.30923    1.000
    Cu3      Cu       0.72073    0.01583    0.84177    1.000
    O7       O        0.68773    0.96707    0.09317    1.000
    O8       O        0.62323    0.89217    0.29997    1.000
    O9       O        0.69573    0.94477    0.67857    1.000
    C9       C        0.66173    0.91447    0.15167    1.000
    C10      C        0.66223    0.87487    0.97077    1.000
    C11      C        0.68123    0.88917    0.75737    1.000
    C12      C        0.68793    0.85047    0.64257    1.000
    Cu4      Cu       0.65084    0.03824    0.17510    1.000
    O10      O        0.69960    0.05400    0.42650    1.000
    O11      O        0.77450    0.06440    0.63330    1.000
    O12      O        0.72190    0.08430    0.01190    1.000
    C13      C        0.75220    0.08060    0.48500    1.000
    C14      C        0.79180    0.12070    0.30410    1.000
    C15      C        0.77750    0.12540    0.09070    1.000
    C16      C        0.81620    0.17080    0.97590    1.000
    Cu5      Cu       0.31751    0.37157    0.50843    1.000
    O13      O        0.36627    0.38733    0.75983    1.000
    O14      O        0.44117    0.39773    0.96663    1.000
    O15      O        0.38857    0.41763    0.34523    1.000
    C17      C        0.41887    0.41393    0.81833    1.000
    C18      C        0.45847    0.45403    0.63743    1.000
    C19      C        0.44417    0.45873    0.42403    1.000
    C20      C        0.48287    0.50413    0.30923    1.000
    Cu6      Cu       0.98417    0.70491    0.84177    1.000
    O16      O        0.03293    0.72067    0.09317    1.000
    O17      O        0.10783    0.73107    0.29997    1.000
    O18      O        0.05523    0.75097    0.67857    1.000
    C21      C        0.08553    0.74727    0.15167    1.000
    C22      C        0.12513    0.78737    0.97077    1.000
    C23      C        0.11083    0.79207    0.75737    1.000
    C24      C        0.14953    0.83747    0.64257    1.000
    Cu7      Cu       0.96176    0.61260    0.17510    1.000
    O19      O        0.94600    0.64560    0.42650    1.000
    O20      O        0.93560    0.71010    0.63330    1.000
    O21      O        0.91570    0.63760    0.01190    1.000
    C25      C        0.91940    0.67160    0.48500    1.000
    C26      C        0.87930    0.67110    0.30410    1.000
    C27      C        0.87460    0.65210    0.09070    1.000
    C28      C        0.82920    0.64540    0.97590    1.000
    Cu8      Cu       0.62843    0.94593    0.50843    1.000
    O22      O        0.61267    0.97893    0.75983    1.000
    O23      O        0.60227    0.04343    0.96663    1.000
    O24      O        0.58237    0.97093    0.34523    1.000
    C29      C        0.58607    0.00493    0.81833    1.000
    C30      C        0.54597    0.00443    0.63743    1.000
    C31      C        0.54127    0.98543    0.42403    1.000
    C32      C        0.49587    0.97873    0.30923    1.000
    Cu9      Cu       0.29509    0.27927    0.84177    1.000
    O25      O        0.27933    0.31227    0.09317    1.000
    O26      O        0.26893    0.37677    0.29997    1.000
    O27      O        0.24903    0.30427    0.67857    1.000
    C33      C        0.25273    0.33827    0.15167    1.000
    C34      C        0.21263    0.33777    0.97077    1.000
    C35      C        0.20793    0.31877    0.75737    1.000
    C36      C        0.16253    0.31207    0.64257    1.000
    Cu10     Cu       0.61260    0.65084    0.82490    1.000
    O28      O        0.64560    0.69960    0.57350    1.000
    O29      O        0.71010    0.77450    0.36670    1.000
    O30      O        0.63760    0.72190    0.98810    1.000
    C37      C        0.67160    0.75220    0.51500    1.000
    C38      C        0.67110    0.79180    0.69590    1.000
    C39      C        0.65210    0.77750    0.90930    1.000
    C40      C        0.64540    0.81620    0.02410    1.000
    Cu11     Cu       0.27927    0.98417    0.15823    1.000
    O31      O        0.31227    0.03293    0.90683    1.000
    O32      O        0.37677    0.10783    0.70003    1.000
    O33      O        0.30427    0.05523    0.32143    1.000
    C41      C        0.33827    0.08553    0.84833    1.000
    C42      C        0.33777    0.12513    0.02923    1.000
    C43      C        0.31877    0.11083    0.24263    1.000
    C44      C        0.31207    0.14953    0.35743    1.000
    Cu12     Cu       0.94593    0.31751    0.49157    1.000
    O34      O        0.97893    0.36627    0.24017    1.000
    O35      O        0.04343    0.44117    0.03337    1.000
    O36      O        0.97093    0.38857    0.65477    1.000
    C45      C        0.00493    0.41887    0.18167    1.000
    C46      C        0.00443    0.45847    0.36257    1.000
    C47      C        0.98543    0.44417    0.57597    1.000
    C48      C        0.97873    0.48287    0.69077    1.000
    Cu13     Cu       0.34916    0.96176    0.82490    1.000
    O37      O        0.30040    0.94600    0.57350    1.000
    O38      O        0.22550    0.93560    0.36670    1.000
    O39      O        0.27810    0.91570    0.98810    1.000
    C49      C        0.24780    0.91940    0.51500    1.000
    C50      C        0.20820    0.87930    0.69590    1.000
    C51      C        0.22250    0.87460    0.90930    1.000
    C52      C        0.18380    0.82920    0.02410    1.000
    Cu14     Cu       0.01583    0.29509    0.15823    1.000
    O40      O        0.96707    0.27933    0.90683    1.000
    O41      O        0.89217    0.26893    0.70003    1.000
    O42      O        0.94477    0.24903    0.32143    1.000
    C53      C        0.91447    0.25273    0.84833    1.000
    C54      C        0.87487    0.21263    0.02923    1.000
    C55      C        0.88917    0.20793    0.24263    1.000
    C56      C        0.85047    0.16253    0.35743    1.000
    Cu15     Cu       0.68249    0.62843    0.49157    1.000
    O43      O        0.63373    0.61267    0.24017    1.000
    O44      O        0.55883    0.60227    0.03337    1.000
    O45      O        0.61143    0.58237    0.65477    1.000
    C57      C        0.58113    0.58607    0.18167    1.000
    C58      C        0.54153    0.54597    0.36257    1.000
    C59      C        0.55583    0.54127    0.57597    1.000
    C60      C        0.51713    0.49587    0.69077    1.000
    Cu16     Cu       0.03824    0.38740    0.82490    1.000
    O46      O        0.05400    0.35440    0.57350    1.000
    O47      O        0.06440    0.28990    0.36670    1.000
    O48      O        0.08430    0.36240    0.98810    1.000
    C61      C        0.08060    0.32840    0.51500    1.000
    C62      C        0.12070    0.32890    0.69590    1.000
    C63      C        0.12540    0.34790    0.90930    1.000
    C64      C        0.17080    0.35460    0.02410    1.000
    Cu17     Cu       0.70491    0.72073    0.15823    1.000
    O49      O        0.72067    0.68773    0.90683    1.000
    O50      O        0.73107    0.62323    0.70003    1.000
    O51      O        0.75097    0.69573    0.32143    1.000
    C65      C        0.74727    0.66173    0.84833    1.000
    C66      C        0.78737    0.66223    0.02923    1.000
    C67      C        0.79207    0.68123    0.24263    1.000
    C68      C        0.83747    0.68793    0.35743    1.000
    Cu18     Cu       0.37157    0.05407    0.49157    1.000
    O52      O        0.38733    0.02107    0.24017    1.000
    O53      O        0.39773    0.95657    0.03337    1.000
    O54      O        0.41763    0.02907    0.65477    1.000
    C69      C        0.41393    0.99507    0.18167    1.000
    C70      C        0.45403    0.99557    0.36257    1.000
    C71      C        0.45873    0.01457    0.57597    1.000
    C72      C        0.50413    0.02127    0.69077    1.000
