# CIF file generated by openbabel 3.1.0, see https://openbabel.org
data_I
_chemical_name_common 'image0'
_cell_length_a 21.6819
_cell_length_b 21.6819
_cell_length_c 7.0794
_cell_angle_alpha 90
_cell_angle_beta 90
_cell_angle_gamma 120
_space_group_name_H-M_alt 'P 1'
_space_group_name_Hall 'P 1'
loop_
    _symmetry_equiv_pos_as_xyz
    x,y,z
loop_
    _atom_site_label
    _atom_site_type_symbol
    _atom_site_fract_x
    _atom_site_fract_y
    _atom_site_fract_z
    _atom_site_occupancy
    Mn1      Mn       0.60964    0.27167    0.14546    1.000
    O1       O        0.65949    0.23870    0.95910    1.000
    O2       O        0.64384    0.28230    0.59490    1.000
    O3       O        0.59350    0.20226    0.37860    1.000
    C1       C        0.63190    0.17980    0.87070    1.000
    C2       C        0.61120    0.16490    0.68120    1.000
    C3       C        0.57610    0.09580    0.61670    1.000
    C4       C        0.56340    0.03860    0.71400    1.000
    C5       C        0.58780    0.04980    0.89710    1.000
    C6       C        0.61330    0.11440    0.98720    1.000
    C7       C        0.61770    0.21910    0.54210    1.000
    H1       H        0.58266    0.00968    0.96495    1.000
    H2       H        0.62577    0.11883    0.11707    1.000
    H3       H        0.56208    0.08548    0.48814    1.000
    Mn2      Mn       0.72833    0.33797    0.81213    1.000
    O4       O        0.76130    0.42079    0.62577    1.000
    O5       O        0.71770    0.36154    0.26157    1.000
    O6       O        0.79774    0.39124    0.04527    1.000
    C8       C        0.82020    0.45210    0.53737    1.000
    C9       C        0.83510    0.44630    0.34787    1.000
    C10      C        0.90420    0.48030    0.28337    1.000
    C11      C        0.96140    0.52480    0.38067    1.000
    C12      C        0.95020    0.53800    0.56377    1.000
    C13      C        0.88560    0.49890    0.65387    1.000
    C14      C        0.78090    0.39860    0.20877    1.000
    H4       H        0.99032    0.57298    0.63162    1.000
    H5       H        0.88117    0.50694    0.78374    1.000
    H6       H        0.91452    0.47660    0.15481    1.000
    Mn3      Mn       0.66203    0.39036    0.47879    1.000
    O7       O        0.57921    0.34051    0.29243    1.000
    O8       O        0.63846    0.35616    0.92823    1.000
    O9       O        0.60876    0.40650    0.71193    1.000
    C15      C        0.54790    0.36810    0.20403    1.000
    C16      C        0.55370    0.38880    0.01453    1.000
    C17      C        0.51970    0.42390    0.95003    1.000
    C18      C        0.47520    0.43660    0.04733    1.000
    C19      C        0.46200    0.41220    0.23043    1.000
    C20      C        0.50110    0.38670    0.32053    1.000
    C21      C        0.60140    0.38230    0.87543    1.000
    H7       H        0.42702    0.41734    0.29828    1.000
    H8       H        0.49306    0.37423    0.45040    1.000
    H9       H        0.52340    0.43792    0.82147    1.000
    Mn4      Mn       0.27167    0.60964    0.85454    1.000
    O10      O        0.23870    0.65949    0.04090    1.000
    O11      O        0.28230    0.64384    0.40510    1.000
    O12      O        0.20226    0.59350    0.62140    1.000
    C22      C        0.17980    0.63190    0.12930    1.000
    C23      C        0.16490    0.61120    0.31880    1.000
    C24      C        0.09580    0.57610    0.38330    1.000
    C25      C        0.03860    0.56340    0.28600    1.000
    C26      C        0.04980    0.58780    0.10290    1.000
    C27      C        0.11440    0.61330    0.01280    1.000
    C28      C        0.21910    0.61770    0.45790    1.000
    H10      H        0.00968    0.58266    0.03505    1.000
    H11      H        0.11883    0.62577    0.88293    1.000
    H12      H        0.08548    0.56208    0.51186    1.000
    Mn5      Mn       0.33797    0.72833    0.18787    1.000
    O13      O        0.42079    0.76130    0.37423    1.000
    O14      O        0.36154    0.71770    0.73843    1.000
    O15      O        0.39124    0.79774    0.95473    1.000
    C29      C        0.45210    0.82020    0.46263    1.000
    C30      C        0.44630    0.83510    0.65213    1.000
    C31      C        0.48030    0.90420    0.71663    1.000
    C32      C        0.52480    0.96140    0.61933    1.000
    C33      C        0.53800    0.95020    0.43623    1.000
    C34      C        0.49890    0.88560    0.34613    1.000
    C35      C        0.39860    0.78090    0.79123    1.000
    H13      H        0.57298    0.99032    0.36838    1.000
    H14      H        0.50694    0.88117    0.21626    1.000
    H15      H        0.47660    0.91452    0.84519    1.000
    Mn6      Mn       0.39036    0.66203    0.52121    1.000
    O16      O        0.34051    0.57921    0.70757    1.000
    O17      O        0.35616    0.63846    0.07177    1.000
    O18      O        0.40650    0.60876    0.28807    1.000
    C36      C        0.36810    0.54790    0.79597    1.000
    C37      C        0.38880    0.55370    0.98547    1.000
    C38      C        0.42390    0.51970    0.04997    1.000
    C39      C        0.43660    0.47520    0.95267    1.000
    C40      C        0.41220    0.46200    0.76957    1.000
    C41      C        0.38670    0.50110    0.67947    1.000
    C42      C        0.38230    0.60140    0.12457    1.000
    H16      H        0.41734    0.42702    0.70172    1.000
    H17      H        0.37423    0.49306    0.54960    1.000
    H18      H        0.43792    0.52340    0.17853    1.000
