# CIF file generated by openbabel 3.1.0, see https://openbabel.org
data_I
_chemical_name_common 'image0'
_cell_length_a 30.621
_cell_length_b 19.8556
_cell_length_c 14.592
_cell_angle_alpha 90
_cell_angle_beta 102.385
_cell_angle_gamma 90
_space_group_name_H-M_alt 'P 1'
_space_group_name_Hall 'P 1'
loop_
    _symmetry_equiv_pos_as_xyz
    x,y,z
loop_
    _atom_site_label
    _atom_site_type_symbol
    _atom_site_fract_x
    _atom_site_fract_y
    _atom_site_fract_z
    _atom_site_occupancy
    C1       C        0.20690    0.85530    0.94970    1.000
    C2       C        0.17260    0.90590    0.96720    1.000
    C3       C        0.13810    0.92540    0.89830    1.000
    H1       H        0.13440    0.90440    0.84010    1.000
    C4       C        0.10790    0.97520    0.90980    1.000
    H2       H        0.08930    0.99480    0.85800    1.000
    C5       C        0.10620    0.99590    0.00450    1.000
    C6       C        0.14070    0.97640    0.07830    1.000
    H3       H        0.14260    0.99230    0.13900    1.000
    C7       C        0.17300    0.93110    0.05670    1.000
    H4       H        0.19600    0.91720    0.10550    1.000
    C8       C        0.06180    0.06560    0.08870    1.000
    C9       C        0.07120    0.08320    0.24500    1.000
    C10      C        0.01540    0.13830    0.14280    1.000
    C11      C        0.94460    0.18810    0.05410    1.000
    C12      C        0.94460    0.16690    0.96760    1.000
    H5       H        0.96650    0.13780    0.95560    1.000
    C13      C        0.90890    0.19110    0.89280    1.000
    H6       H        0.90990    0.18220    0.83070    1.000
    C14      C        0.87400    0.22640    0.91200    1.000
    C15      C        0.87580    0.24960    0.00550    1.000
    H7       H        0.85300    0.27540    0.02060    1.000
    C16      C        0.91050    0.23310    0.06720    1.000
    H8       H        0.91360    0.25230    0.12640    1.000
    C17      C        0.83470    0.23910    0.83320    1.000
    C18      C        0.21750    0.86560    0.48330    1.000
    C19      C        0.18960    0.92080    0.43820    1.000
    C20      C        0.15530    0.91300    0.36080    1.000
    H9       H        0.15380    0.87150    0.33080    1.000
    C21      C        0.12360    0.95840    0.32290    1.000
    H10      H        0.10040    0.94810    0.27230    1.000
    C22      C        0.12840    0.02420    0.36720    1.000
    C23      C        0.16330    0.03700    0.44640    1.000
    H11      H        0.16660    0.07970    0.47320    1.000
    C24      C        0.19160    0.98730    0.48280    1.000
    H12      H        0.21300    0.99520    0.53750    1.000
    C25      C        0.27580    0.86930    0.25020    1.000
    C26      C        0.30340    0.92420    0.24060    1.000
    C27      C        0.34180    0.91770    0.19740    1.000
    H13      H        0.34610    0.87720    0.16860    1.000
    C28      C        0.37070    0.96680    0.19730    1.000
    H14      H        0.39740    0.95790    0.17900    1.000
    C29      C        0.36120    0.03660    0.22600    1.000
    C30      C        0.32500    0.04080    0.26830    1.000
    H15      H        0.32010    0.08140    0.29620    1.000
    C31      C        0.29690    0.99090    0.27160    1.000
    H16      H        0.27160    0.99970    0.29530    1.000
    C32      C        0.41610    0.10000    0.16020    1.000
    C33      C        0.47460    0.15570    0.12360    1.000
    C34      C        0.54720    0.20940    0.11100    1.000
    C35      C        0.58120    0.25780    0.16000    1.000
    H17      H        0.57700    0.28110    0.21270    1.000
    C36      C        0.61590    0.26630    0.12780    1.000
    H18      H        0.63690    0.29750    0.15730    1.000
    C37      C        0.62430    0.23270    0.05350    1.000
    C38      C        0.59250    0.18670    0.00120    1.000
    H19      H        0.59760    0.16420    0.94850    1.000
    C39      C        0.55430    0.17790    0.03360    1.000
    H20      H        0.53240    0.14910    0.00130    1.000
    C40      C        0.66520    0.24390    0.01540    1.000
    C41      C        0.43760    0.07520    0.02950    1.000
    C42      C        0.40170    0.99480    0.90040    1.000
    C43      C        0.40960    0.96720    0.81480    1.000
    H21      H        0.43350    0.98280    0.79070    1.000
    C44      C        0.38300    0.91950    0.76960    1.000
    H22      H        0.38950    0.90020    0.71600    1.000
    C45      C        0.34640    0.89820    0.80050    1.000
    C46      C        0.33700    0.92660    0.88140    1.000
    H23      H        0.31180    0.91340    0.90260    1.000
    C47      C        0.36520    0.97350    0.92900    1.000
    H24      H        0.35890    0.99180    0.98350    1.000
    C48      C        0.31430    0.84630    0.74380    1.000
    N1       N        0.07130    0.03750    0.01110    1.000
    H25      H        0.05300    0.04680    0.95920    1.000
    N2       N        0.08900    0.05450    0.17200    1.000
    N3       N        0.03990    0.12450    0.23960    1.000
    N4       N        0.02430    0.10600    0.06870    1.000
    N5       N        0.97860    0.17360    0.13950    1.000
    H26      H        0.97410    0.18940    0.19160    1.000
    N6       N        0.09490    0.07470    0.33460    1.000
    H27      H        0.08930    0.10240    0.37590    1.000
    N7       N        0.38980    0.08820    0.22400    1.000
    H28      H        0.39190    0.11740    0.26830    1.000
    N8       N        0.45070    0.14660    0.19020    1.000
    N9       N        0.46990    0.12280    0.03870    1.000
    N10      N        0.40780    0.06590    0.08250    1.000
    N11      N        0.43360    0.04040    0.94270    1.000
    H29      H        0.45420    0.04900    0.91240    1.000
    N12      N        0.50730    0.20180    0.14840    1.000
    H30      H        0.50420    0.22980    0.19150    1.000
    O1       O        0.23520    0.83700    0.01910    1.000
    O2       O        0.80050    0.26540    0.85180    1.000
    O3       O        0.28300    0.81000    0.22030    1.000
    O4       O        0.32570    0.82640    0.66990    1.000
    O5       O        0.66790    0.20800    0.93920    1.000
    O6       O        0.24420    0.87990    0.56060    1.000
    O7       O        0.21510    0.80680    0.44830    1.000
    O8       O        0.20380    0.83760    0.86890    1.000
    O9       O        0.69810    0.27120    0.05630    1.000
    O10      O        0.24330    0.87550    0.29530    1.000
    O11      O        0.28010    0.82460    0.77050    1.000
    O12      O        0.83730    0.22670    0.75300    1.000
    Tb1      Tb       0.76213    0.24580    0.67979    1.000
    Tb2      Tb       0.73366    0.26186    0.91297    1.000
    C49      C        0.79310    0.35530    0.55030    1.000
    C50      C        0.82740    0.40590    0.53280    1.000
    C51      C        0.86190    0.42540    0.60170    1.000
    H31      H        0.86560    0.40440    0.65990    1.000
    C52      C        0.89210    0.47520    0.59020    1.000
    H32      H        0.91070    0.49480    0.64200    1.000
    C53      C        0.89380    0.49590    0.49550    1.000
    C54      C        0.85930    0.47640    0.42170    1.000
    H33      H        0.85740    0.49230    0.36100    1.000
    C55      C        0.82700    0.43110    0.44330    1.000
    H34      H        0.80400    0.41720    0.39450    1.000
    C56      C        0.93820    0.56560    0.41130    1.000
    C57      C        0.92880    0.58320    0.25500    1.000
    C58      C        0.98460    0.63830    0.35720    1.000
    C59      C        0.05540    0.68810    0.44590    1.000
    C60      C        0.05540    0.66690    0.53240    1.000
    H35      H        0.03350    0.63780    0.54440    1.000
    C61      C        0.09110    0.69110    0.60720    1.000
    H36      H        0.09010    0.68220    0.66930    1.000
    C62      C        0.12600    0.72640    0.58800    1.000
    C63      C        0.12420    0.74960    0.49450    1.000
    H37      H        0.14700    0.77540    0.47940    1.000
    C64      C        0.08950    0.73310    0.43280    1.000
    H38      H        0.08640    0.75230    0.37360    1.000
    C65      C        0.16530    0.73910    0.66680    1.000
    C66      C        0.78250    0.36560    0.01670    1.000
    C67      C        0.81040    0.42080    0.06180    1.000
    C68      C        0.84470    0.41300    0.13920    1.000
    H39      H        0.84620    0.37150    0.16920    1.000
    C69      C        0.87640    0.45840    0.17710    1.000
    H40      H        0.89960    0.44810    0.22770    1.000
    C70      C        0.87160    0.52420    0.13280    1.000
    C71      C        0.83670    0.53700    0.05360    1.000
    H41      H        0.83340    0.57970    0.02680    1.000
    C72      C        0.80840    0.48730    0.01720    1.000
    H42      H        0.78700    0.49520    0.96250    1.000
    C73      C        0.72420    0.36930    0.24980    1.000
    C74      C        0.69660    0.42420    0.25940    1.000
    C75      C        0.65820    0.41770    0.30260    1.000
    H43      H        0.65390    0.37720    0.33140    1.000
    C76      C        0.62930    0.46680    0.30270    1.000
    H44      H        0.60260    0.45790    0.32100    1.000
    C77      C        0.63880    0.53660    0.27400    1.000
    C78      C        0.67500    0.54080    0.23170    1.000
    H45      H        0.67990    0.58140    0.20380    1.000
    C79      C        0.70310    0.49090    0.22840    1.000
    H46      H        0.72840    0.49970    0.20470    1.000
    C80      C        0.58390    0.60000    0.33980    1.000
    C81      C        0.52540    0.65570    0.37640    1.000
    C82      C        0.45280    0.70940    0.38900    1.000
    C83      C        0.41880    0.75780    0.34000    1.000
    H47      H        0.42300    0.78110    0.28730    1.000
    C84      C        0.38410    0.76630    0.37220    1.000
    H48      H        0.36310    0.79750    0.34270    1.000
    C85      C        0.37570    0.73270    0.44650    1.000
    C86      C        0.40750    0.68670    0.49880    1.000
    H49      H        0.40240    0.66420    0.55150    1.000
    C87      C        0.44570    0.67790    0.46640    1.000
    H50      H        0.46760    0.64910    0.49870    1.000
    C88      C        0.33480    0.74390    0.48460    1.000
    C89      C        0.56240    0.57520    0.47050    1.000
    C90      C        0.59830    0.49480    0.59960    1.000
    C91      C        0.59040    0.46720    0.68520    1.000
    H51      H        0.56650    0.48280    0.70930    1.000
    C92      C        0.61700    0.41950    0.73040    1.000
    H52      H        0.61050    0.40020    0.78400    1.000
    C93      C        0.65360    0.39820    0.69950    1.000
    C94      C        0.66300    0.42660    0.61860    1.000
    H53      H        0.68820    0.41340    0.59740    1.000
    C95      C        0.63480    0.47350    0.57100    1.000
    H54      H        0.64110    0.49180    0.51650    1.000
    C96      C        0.68570    0.34630    0.75620    1.000
    N13      N        0.92870    0.53750    0.48890    1.000
    H55      H        0.94700    0.54680    0.54080    1.000
    N14      N        0.91100    0.55450    0.32800    1.000
    N15      N        0.96010    0.62450    0.26040    1.000
    N16      N        0.97570    0.60600    0.43130    1.000
    N17      N        0.02140    0.67360    0.36050    1.000
    H56      H        0.02590    0.68940    0.30840    1.000
    N18      N        0.90510    0.57470    0.16540    1.000
    H57      H        0.91070    0.60240    0.12410    1.000
    N19      N        0.61020    0.58820    0.27600    1.000
    H58      H        0.60810    0.61740    0.23170    1.000
    N20      N        0.54930    0.64660    0.30980    1.000
    N21      N        0.53010    0.62280    0.46130    1.000
    N22      N        0.59220    0.56590    0.41750    1.000
    N23      N        0.56640    0.54040    0.55730    1.000
    H59      H        0.54580    0.54900    0.58760    1.000
    N24      N        0.49270    0.70180    0.35160    1.000
    H60      H        0.49580    0.72980    0.30850    1.000
    O13      O        0.76480    0.33700    0.48090    1.000
    O14      O        0.19950    0.76540    0.64820    1.000
    O15      O        0.71700    0.31000    0.27970    1.000
    O16      O        0.67430    0.32640    0.83010    1.000
    O17      O        0.33210    0.70800    0.56080    1.000
    O18      O        0.75580    0.37990    0.93940    1.000
    O19      O        0.78490    0.30680    0.05170    1.000
    O20      O        0.79620    0.33760    0.63110    1.000
    O21      O        0.30190    0.77120    0.44370    1.000
    O22      O        0.75670    0.37550    0.20470    1.000
    O23      O        0.71990    0.32460    0.72950    1.000
    O24      O        0.16270    0.72670    0.74700    1.000
    Tb3      Tb       0.23787    0.74580    0.82021    1.000
    Tb4      Tb       0.26634    0.76186    0.58703    1.000
    C97      C        0.79310    0.14470    0.05030    1.000
    C98      C        0.82740    0.09410    0.03280    1.000
    C99      C        0.86190    0.07460    0.10170    1.000
    H61      H        0.86560    0.09560    0.15990    1.000
    C100     C        0.89210    0.02480    0.09020    1.000
    H62      H        0.91070    0.00520    0.14200    1.000
    C101     C        0.89380    0.00410    0.99550    1.000
    C102     C        0.85930    0.02360    0.92170    1.000
    H63      H        0.85740    0.00770    0.86100    1.000
    C103     C        0.82700    0.06890    0.94330    1.000
    H64      H        0.80400    0.08280    0.89450    1.000
    C104     C        0.93820    0.93440    0.91130    1.000
    C105     C        0.92880    0.91680    0.75500    1.000
    C106     C        0.98460    0.86170    0.85720    1.000
    C107     C        0.05540    0.81190    0.94590    1.000
    C108     C        0.05540    0.83310    0.03240    1.000
    H65      H        0.03350    0.86220    0.04440    1.000
    C109     C        0.09110    0.80890    0.10720    1.000
    H66      H        0.09010    0.81780    0.16930    1.000
    C110     C        0.12600    0.77360    0.08800    1.000
    C111     C        0.12420    0.75040    0.99450    1.000
    H67      H        0.14700    0.72460    0.97940    1.000
    C112     C        0.08950    0.76690    0.93280    1.000
    H68      H        0.08640    0.74770    0.87360    1.000
    C113     C        0.16530    0.76090    0.16680    1.000
    C114     C        0.78250    0.13440    0.51670    1.000
    C115     C        0.81040    0.07920    0.56180    1.000
    C116     C        0.84470    0.08700    0.63920    1.000
    H69      H        0.84620    0.12850    0.66920    1.000
    C117     C        0.87640    0.04160    0.67710    1.000
    H70      H        0.89960    0.05190    0.72770    1.000
    C118     C        0.87160    0.97580    0.63280    1.000
    C119     C        0.83670    0.96300    0.55360    1.000
    H71      H        0.83340    0.92030    0.52680    1.000
    C120     C        0.80840    0.01270    0.51720    1.000
    H72      H        0.78700    0.00480    0.46250    1.000
    C121     C        0.72420    0.13070    0.74980    1.000
    C122     C        0.69660    0.07580    0.75940    1.000
    C123     C        0.65820    0.08230    0.80260    1.000
    H73      H        0.65390    0.12280    0.83140    1.000
    C124     C        0.62930    0.03320    0.80270    1.000
    H74      H        0.60260    0.04210    0.82100    1.000
    C125     C        0.63880    0.96340    0.77400    1.000
    C126     C        0.67500    0.95920    0.73170    1.000
    H75      H        0.67990    0.91860    0.70380    1.000
    C127     C        0.70310    0.00910    0.72840    1.000
    H76      H        0.72840    0.00030    0.70470    1.000
    C128     C        0.58390    0.90000    0.83980    1.000
    C129     C        0.52540    0.84430    0.87640    1.000
    C130     C        0.45280    0.79060    0.88900    1.000
    C131     C        0.41880    0.74220    0.84000    1.000
    H77      H        0.42300    0.71890    0.78730    1.000
    C132     C        0.38410    0.73370    0.87220    1.000
    H78      H        0.36310    0.70250    0.84270    1.000
    C133     C        0.37570    0.76730    0.94650    1.000
    C134     C        0.40750    0.81330    0.99880    1.000
    H79      H        0.40240    0.83580    0.05150    1.000
    C135     C        0.44570    0.82210    0.96640    1.000
    H80      H        0.46760    0.85090    0.99870    1.000
    C136     C        0.33480    0.75610    0.98460    1.000
    C137     C        0.56240    0.92480    0.97050    1.000
    C138     C        0.59830    0.00520    0.09960    1.000
    C139     C        0.59040    0.03280    0.18520    1.000
    H81      H        0.56650    0.01720    0.20930    1.000
    C140     C        0.61700    0.08050    0.23040    1.000
    H82      H        0.61050    0.09980    0.28400    1.000
    C141     C        0.65360    0.10180    0.19950    1.000
    C142     C        0.66300    0.07340    0.11860    1.000
    H83      H        0.68820    0.08660    0.09740    1.000
    C143     C        0.63480    0.02650    0.07100    1.000
    H84      H        0.64110    0.00820    0.01650    1.000
    C144     C        0.68570    0.15370    0.25620    1.000
    N25      N        0.92870    0.96250    0.98890    1.000
    H85      H        0.94700    0.95320    0.04080    1.000
    N26      N        0.91100    0.94550    0.82800    1.000
    N27      N        0.96010    0.87550    0.76040    1.000
    N28      N        0.97570    0.89400    0.93130    1.000
    N29      N        0.02140    0.82640    0.86050    1.000
    H86      H        0.02590    0.81060    0.80840    1.000
    N30      N        0.90510    0.92530    0.66540    1.000
    H87      H        0.91070    0.89760    0.62410    1.000
    N31      N        0.61020    0.91180    0.77600    1.000
    H88      H        0.60810    0.88260    0.73170    1.000
    N32      N        0.54930    0.85340    0.80980    1.000
    N33      N        0.53010    0.87720    0.96130    1.000
    N34      N        0.59220    0.93410    0.91750    1.000
    N35      N        0.56640    0.95960    0.05730    1.000
    H89      H        0.54580    0.95100    0.08760    1.000
    N36      N        0.49270    0.79820    0.85160    1.000
    H90      H        0.49580    0.77020    0.80850    1.000
    O25      O        0.76480    0.16300    0.98090    1.000
    O26      O        0.19950    0.73460    0.14820    1.000
    O27      O        0.71700    0.19000    0.77970    1.000
    O28      O        0.67430    0.17360    0.33010    1.000
    O29      O        0.33210    0.79200    0.06080    1.000
    O30      O        0.75580    0.12010    0.43940    1.000
    O31      O        0.78490    0.19320    0.55170    1.000
    O32      O        0.79620    0.16240    0.13110    1.000
    O33      O        0.30190    0.72880    0.94370    1.000
    O34      O        0.75670    0.12450    0.70470    1.000
    O35      O        0.71990    0.17540    0.22950    1.000
    O36      O        0.16270    0.77330    0.24700    1.000
    Tb5      Tb       0.23787    0.75420    0.32021    1.000
    Tb6      Tb       0.26634    0.73814    0.08703    1.000
    C145     C        0.20690    0.64470    0.44970    1.000
    C146     C        0.17260    0.59410    0.46720    1.000
    C147     C        0.13810    0.57460    0.39830    1.000
    H91      H        0.13440    0.59560    0.34010    1.000
    C148     C        0.10790    0.52480    0.40980    1.000
    H92      H        0.08930    0.50520    0.35800    1.000
    C149     C        0.10620    0.50410    0.50450    1.000
    C150     C        0.14070    0.52360    0.57830    1.000
    H93      H        0.14260    0.50770    0.63900    1.000
    C151     C        0.17300    0.56890    0.55670    1.000
    H94      H        0.19600    0.58280    0.60550    1.000
    C152     C        0.06180    0.43440    0.58870    1.000
    C153     C        0.07120    0.41680    0.74500    1.000
    C154     C        0.01540    0.36170    0.64280    1.000
    C155     C        0.94460    0.31190    0.55410    1.000
    C156     C        0.94460    0.33310    0.46760    1.000
    H95      H        0.96650    0.36220    0.45560    1.000
    C157     C        0.90890    0.30890    0.39280    1.000
    H96      H        0.90990    0.31780    0.33070    1.000
    C158     C        0.87400    0.27360    0.41200    1.000
    C159     C        0.87580    0.25040    0.50550    1.000
    H97      H        0.85300    0.22460    0.52060    1.000
    C160     C        0.91050    0.26690    0.56720    1.000
    H98      H        0.91360    0.24770    0.62640    1.000
    C161     C        0.83470    0.26090    0.33320    1.000
    C162     C        0.21750    0.63440    0.98330    1.000
    C163     C        0.18960    0.57920    0.93820    1.000
    C164     C        0.15530    0.58700    0.86080    1.000
    H99      H        0.15380    0.62850    0.83080    1.000
    C165     C        0.12360    0.54160    0.82290    1.000
    H100     H        0.10040    0.55190    0.77230    1.000
    C166     C        0.12840    0.47580    0.86720    1.000
    C167     C        0.16330    0.46300    0.94640    1.000
    H101     H        0.16660    0.42030    0.97320    1.000
    C168     C        0.19160    0.51270    0.98280    1.000
    H102     H        0.21300    0.50480    0.03750    1.000
    C169     C        0.27580    0.63070    0.75020    1.000
    C170     C        0.30340    0.57580    0.74060    1.000
    C171     C        0.34180    0.58230    0.69740    1.000
    H103     H        0.34610    0.62280    0.66860    1.000
    C172     C        0.37070    0.53320    0.69730    1.000
    H104     H        0.39740    0.54210    0.67900    1.000
    C173     C        0.36120    0.46340    0.72600    1.000
    C174     C        0.32500    0.45920    0.76830    1.000
    H105     H        0.32010    0.41860    0.79620    1.000
    C175     C        0.29690    0.50910    0.77160    1.000
    H106     H        0.27160    0.50030    0.79530    1.000
    C176     C        0.41610    0.40000    0.66020    1.000
    C177     C        0.47460    0.34430    0.62360    1.000
    C178     C        0.54720    0.29060    0.61100    1.000
    C179     C        0.58120    0.24220    0.66000    1.000
    H107     H        0.57700    0.21890    0.71270    1.000
    C180     C        0.61590    0.23370    0.62780    1.000
    H108     H        0.63690    0.20250    0.65730    1.000
    C181     C        0.62430    0.26730    0.55350    1.000
    C182     C        0.59250    0.31330    0.50120    1.000
    H109     H        0.59760    0.33580    0.44850    1.000
    C183     C        0.55430    0.32210    0.53360    1.000
    H110     H        0.53240    0.35090    0.50130    1.000
    C184     C        0.66520    0.25610    0.51540    1.000
    C185     C        0.43760    0.42480    0.52950    1.000
    C186     C        0.40170    0.50520    0.40040    1.000
    C187     C        0.40960    0.53280    0.31480    1.000
    H111     H        0.43350    0.51720    0.29070    1.000
    C188     C        0.38300    0.58050    0.26960    1.000
    H112     H        0.38950    0.59980    0.21600    1.000
    C189     C        0.34640    0.60180    0.30050    1.000
    C190     C        0.33700    0.57340    0.38140    1.000
    H113     H        0.31180    0.58660    0.40260    1.000
    C191     C        0.36520    0.52650    0.42900    1.000
    H114     H        0.35890    0.50820    0.48350    1.000
    C192     C        0.31430    0.65370    0.24380    1.000
    N37      N        0.07130    0.46250    0.51110    1.000
    H115     H        0.05300    0.45320    0.45920    1.000
    N38      N        0.08900    0.44550    0.67200    1.000
    N39      N        0.03990    0.37550    0.73960    1.000
    N40      N        0.02430    0.39400    0.56870    1.000
    N41      N        0.97860    0.32640    0.63950    1.000
    H116     H        0.97410    0.31060    0.69160    1.000
    N42      N        0.09490    0.42530    0.83460    1.000
    H117     H        0.08930    0.39760    0.87590    1.000
    N43      N        0.38980    0.41180    0.72400    1.000
    H118     H        0.39190    0.38260    0.76830    1.000
    N44      N        0.45070    0.35340    0.69020    1.000
    N45      N        0.46990    0.37720    0.53870    1.000
    N46      N        0.40780    0.43410    0.58250    1.000
    N47      N        0.43360    0.45960    0.44270    1.000
    H119     H        0.45420    0.45100    0.41240    1.000
    N48      N        0.50730    0.29820    0.64840    1.000
    H120     H        0.50420    0.27020    0.69150    1.000
    O37      O        0.23520    0.66300    0.51910    1.000
    O38      O        0.80050    0.23460    0.35180    1.000
    O39      O        0.28300    0.69000    0.72030    1.000
    O40      O        0.32570    0.67360    0.16990    1.000
    O41      O        0.66790    0.29200    0.43920    1.000
    O42      O        0.24420    0.62010    0.06060    1.000
    O43      O        0.21510    0.69320    0.94830    1.000
    O44      O        0.20380    0.66240    0.36890    1.000
    O45      O        0.69810    0.22880    0.55630    1.000
    O46      O        0.24330    0.62450    0.79530    1.000
    O47      O        0.28010    0.67540    0.27050    1.000
    O48      O        0.83730    0.27330    0.25300    1.000
    Tb7      Tb       0.76213    0.25420    0.17979    1.000
    Tb8      Tb       0.73366    0.23814    0.41297    1.000
