# CIF file generated by openbabel 3.1.0, see https://openbabel.org
data_I
_chemical_name_common 'image0'
_cell_length_a 9.7353
_cell_length_b 17.7435
_cell_length_c 11.7645
_cell_angle_alpha 90
_cell_angle_beta 104.07
_cell_angle_gamma 90
_space_group_name_H-M_alt 'P 1'
_space_group_name_Hall 'P 1'
loop_
    _symmetry_equiv_pos_as_xyz
    x,y,z
loop_
    _atom_site_label
    _atom_site_type_symbol
    _atom_site_fract_x
    _atom_site_fract_y
    _atom_site_fract_z
    _atom_site_occupancy
    C1       C        0.97160    0.16190    0.09650    1.000
    H1       H        0.87610    0.15320    0.06340    1.000
    C2       C        0.20040    0.12162    0.13790    1.000
    H2       H        0.26770    0.08560    0.13230    1.000
    C3       C        0.24450    0.18775    0.19730    1.000
    C4       C        0.15120    0.24511    0.20640    1.000
    C5       C        0.01080    0.22991    0.15160    1.000
    C6       C        0.20590    0.31430    0.26880    1.000
    H3       H        0.30340    0.32100    0.28380    1.000
    C7       C        0.21070    0.43612    0.36862    1.000
    C8       C        0.13540    0.36855    0.30650    1.000
    H4       H        0.03760    0.36480    0.29440    1.000
    F1       F        0.37750    0.19383    0.25530    1.000
    N1       N        0.06453    0.10770    0.08829    1.000
    O1       O        0.34309    0.43591    0.39054    1.000
    O2       O        0.13607    0.48890    0.39211    1.000
    C9       C        0.31080    0.66100    0.22670    1.000
    C10      C        0.45510    0.66920    0.44920    1.000
    H5       H        0.50510    0.67270    0.52720    1.000
    C11      C        0.35890    0.59705    0.28960    1.000
    H6       H        0.34070    0.55020    0.25350    1.000
    C12      C        0.34800    0.86515    0.21510    1.000
    H7       H        0.43490    0.86970    0.26920    1.000
    C13      C        0.40970    0.73479    0.38940    1.000
    H8       H        0.42950    0.78100    0.42720    1.000
    C14      C        0.33470    0.73245    0.27330    1.000
    C15      C        0.28850    0.93200    0.14220    1.000
    C16      C        0.28130    0.80009    0.20530    1.000
    H9       H        0.19420    0.79680    0.15130    1.000
    F2       F        0.23900    0.65315    0.11354    1.000
    N2       N        0.43120    0.60072    0.40102    1.000
    O3       O        0.15583    0.93794    0.11514    1.000
    O4       O        0.37476    0.97732    0.11705    1.000
    F3       F        0.91640    0.28200    0.14410    1.000
    C17      C        0.02840    0.66190    0.40350    1.000
    H10      H        0.12390    0.65320    0.43660    1.000
    C18      C        0.79960    0.62162    0.36210    1.000
    H11      H        0.73230    0.58560    0.36770    1.000
    C19      C        0.75550    0.68775    0.30270    1.000
    C20      C        0.84880    0.74511    0.29360    1.000
    C21      C        0.98920    0.72991    0.34840    1.000
    C22      C        0.79410    0.81430    0.23120    1.000
    H12      H        0.69660    0.82100    0.21620    1.000
    C23      C        0.78930    0.93612    0.13138    1.000
    C24      C        0.86460    0.86855    0.19350    1.000
    H13      H        0.96240    0.86480    0.20560    1.000
    F4       F        0.62250    0.69383    0.24470    1.000
    N3       N        0.93547    0.60770    0.41171    1.000
    O5       O        0.65691    0.93591    0.10946    1.000
    O6       O        0.86393    0.98890    0.10789    1.000
    C25      C        0.68920    0.16100    0.27330    1.000
    C26      C        0.54490    0.16920    0.05080    1.000
    H14      H        0.49490    0.17270    0.97280    1.000
    C27      C        0.64110    0.09705    0.21040    1.000
    H15      H        0.65930    0.05020    0.24650    1.000
    C28      C        0.65200    0.36515    0.28490    1.000
    H16      H        0.56510    0.36970    0.23080    1.000
    C29      C        0.59030    0.23479    0.11060    1.000
    H17      H        0.57050    0.28100    0.07280    1.000
    C30      C        0.66530    0.23245    0.22670    1.000
    C31      C        0.71150    0.43200    0.35780    1.000
    C32      C        0.71870    0.30009    0.29470    1.000
    H18      H        0.80580    0.29680    0.34870    1.000
    F5       F        0.76100    0.15315    0.38646    1.000
    N4       N        0.56880    0.10072    0.09898    1.000
    O7       O        0.84417    0.43794    0.38486    1.000
    O8       O        0.62524    0.47732    0.38295    1.000
    F6       F        0.08360    0.78200    0.35590    1.000
    C33      C        0.02840    0.83810    0.90350    1.000
    H19      H        0.12390    0.84680    0.93660    1.000
    C34      C        0.79960    0.87838    0.86210    1.000
    H20      H        0.73230    0.91440    0.86770    1.000
    C35      C        0.75550    0.81225    0.80270    1.000
    C36      C        0.84880    0.75489    0.79360    1.000
    C37      C        0.98920    0.77009    0.84840    1.000
    C38      C        0.79410    0.68570    0.73120    1.000
    H21      H        0.69660    0.67900    0.71620    1.000
    C39      C        0.78930    0.56388    0.63138    1.000
    C40      C        0.86460    0.63145    0.69350    1.000
    H22      H        0.96240    0.63520    0.70560    1.000
    F7       F        0.62250    0.80617    0.74470    1.000
    N5       N        0.93547    0.89230    0.91171    1.000
    O9       O        0.65691    0.56409    0.60946    1.000
    O10      O        0.86393    0.51110    0.60789    1.000
    C41      C        0.68920    0.33900    0.77330    1.000
    C42      C        0.54490    0.33080    0.55080    1.000
    H23      H        0.49490    0.32730    0.47280    1.000
    C43      C        0.64110    0.40295    0.71040    1.000
    H24      H        0.65930    0.44980    0.74650    1.000
    C44      C        0.65200    0.13485    0.78490    1.000
    H25      H        0.56510    0.13030    0.73080    1.000
    C45      C        0.59030    0.26521    0.61060    1.000
    H26      H        0.57050    0.21900    0.57280    1.000
    C46      C        0.66530    0.26755    0.72670    1.000
    C47      C        0.71150    0.06800    0.85780    1.000
    C48      C        0.71870    0.19991    0.79470    1.000
    H27      H        0.80580    0.20320    0.84870    1.000
    F8       F        0.76100    0.34685    0.88646    1.000
    N6       N        0.56880    0.39928    0.59898    1.000
    O11      O        0.84417    0.06206    0.88486    1.000
    O12      O        0.62524    0.02268    0.88295    1.000
    F9       F        0.08360    0.71800    0.85590    1.000
    C49      C        0.97160    0.33810    0.59650    1.000
    H28      H        0.87610    0.34680    0.56340    1.000
    C50      C        0.20040    0.37838    0.63790    1.000
    H29      H        0.26770    0.41440    0.63230    1.000
    C51      C        0.24450    0.31225    0.69730    1.000
    C52      C        0.15120    0.25489    0.70640    1.000
    C53      C        0.01080    0.27009    0.65160    1.000
    C54      C        0.20590    0.18570    0.76880    1.000
    H30      H        0.30340    0.17900    0.78380    1.000
    C55      C        0.21070    0.06388    0.86862    1.000
    C56      C        0.13540    0.13145    0.80650    1.000
    H31      H        0.03760    0.13520    0.79440    1.000
    F10      F        0.37750    0.30617    0.75530    1.000
    N7       N        0.06453    0.39230    0.58829    1.000
    O13      O        0.34309    0.06409    0.89054    1.000
    O14      O        0.13607    0.01110    0.89211    1.000
    C57      C        0.31080    0.83900    0.72670    1.000
    C58      C        0.45510    0.83080    0.94920    1.000
    H32      H        0.50510    0.82730    0.02720    1.000
    C59      C        0.35890    0.90295    0.78960    1.000
    H33      H        0.34070    0.94980    0.75350    1.000
    C60      C        0.34800    0.63485    0.71510    1.000
    H34      H        0.43490    0.63030    0.76920    1.000
    C61      C        0.40970    0.76521    0.88940    1.000
    H35      H        0.42950    0.71900    0.92720    1.000
    C62      C        0.33470    0.76755    0.77330    1.000
    C63      C        0.28850    0.56800    0.64220    1.000
    C64      C        0.28130    0.69991    0.70530    1.000
    H36      H        0.19420    0.70320    0.65130    1.000
    F11      F        0.23900    0.84685    0.61354    1.000
    N8       N        0.43120    0.89928    0.90102    1.000
    O15      O        0.15583    0.56206    0.61514    1.000
    O16      O        0.37476    0.52268    0.61705    1.000
    F12      F        0.91640    0.21800    0.64410    1.000
    Co1      Co       0.00000    0.00000    0.00000    1.000
    Co2      Co       0.00000    0.50000    0.50000    1.000
    Co3      Co       0.50000    0.50000    0.50000    1.000
    Co4      Co       0.50000    0.00000    0.00000    1.000
