# CIF file generated by openbabel 3.1.0, see https://openbabel.org
data_I
_chemical_name_common 'image0'
_cell_length_a 15.8381
_cell_length_b 16.5226
_cell_length_c 23.5796
_cell_angle_alpha 90
_cell_angle_beta 90
_cell_angle_gamma 90
_space_group_name_H-M_alt 'P 1'
_space_group_name_Hall 'P 1'
loop_
    _symmetry_equiv_pos_as_xyz
    x,y,z
loop_
    _atom_site_label
    _atom_site_type_symbol
    _atom_site_fract_x
    _atom_site_fract_y
    _atom_site_fract_z
    _atom_site_occupancy
    Cu1      Cu       0.07371    0.61777    0.51124    1.000
    Cu2      Cu       0.88689    0.50600    0.50320    1.000
    Cu3      Cu       0.98202    0.50957    0.62188    1.000
    N1       N        0.09450    0.35930    0.68830    1.000
    O1       O        0.09250    0.41650    0.65520    1.000
    O2       O        0.03630    0.30500    0.69180    1.000
    O3       O        0.15420    0.35890    0.72250    1.000
    Cu4      Cu       0.71609    0.59583    0.43205    1.000
    Cu5      Cu       0.76972    0.39466    0.43418    1.000
    Cu6      Cu       0.60769    0.49367    0.50661    1.000
    Cu7      Cu       0.51564    0.49451    0.62724    1.000
    Cu8      Cu       0.41738    0.39035    0.51469    1.000
    C1       C        0.22440    0.64910    0.57900    1.000
    C2       C        0.17510    0.64660    0.63540    1.000
    H1       H        0.19090    0.69630    0.65720    1.000
    C3       C        0.07990    0.64930    0.62690    1.000
    H2       H        0.06450    0.70370    0.61150    1.000
    C4       C        0.03550    0.63830    0.68390    1.000
    C5       C        0.02340    0.65880    0.40470    1.000
    C6       C        0.94130    0.63460    0.43400    1.000
    H3       H        0.90900    0.68480    0.44340    1.000
    C7       C        0.88380    0.57790    0.39840    1.000
    H4       H        0.91900    0.53360    0.38180    1.000
    C8       C        0.83500    0.62080    0.35030    1.000
    C9       C        0.90670    0.31090    0.47000    1.000
    C10      C        0.86610    0.34390    0.52380    1.000
    H5       H        0.83030    0.30040    0.54090    1.000
    C11      C        0.93180    0.36980    0.56740    1.000
    H6       H        0.97850    0.32900    0.56780    1.000
    C12      C        0.89110    0.37200    0.62630    1.000
    C13      C        0.61450    0.62810    0.62800    1.000
    C14      C        0.56890    0.63170    0.57110    1.000
    H7       H        0.52290    0.67300    0.57360    1.000
    C15      C        0.62900    0.65590    0.52380    1.000
    H8       H        0.66450    0.70230    0.53700    1.000
    C16      C        0.58130    0.68130    0.47120    1.000
    C17      C        0.65240    0.38810    0.35020    1.000
    C18      C        0.60520    0.43100    0.39850    1.000
    H9       H        0.57520    0.47900    0.38230    1.000
    C19      C        0.53970    0.37790    0.43080    1.000
    H10      H        0.56370    0.32230    0.43540    1.000
    C20      C        0.45290    0.37060    0.40220    1.000
    C21      C        0.46130    0.36490    0.68800    1.000
    C22      C        0.41430    0.35750    0.63207    1.000
    H11      H        0.42170    0.30120    0.61730    1.000
    C23      C        0.31910    0.37310    0.64150    1.000
    H12      H        0.29140    0.32040    0.65090    1.000
    C24      C        0.28010    0.40520    0.58660    1.000
    O4       O        0.18510    0.65980    0.53233    1.000
    O5       O        0.30280    0.64480    0.58103    1.000
    O6       O        0.20000    0.57910    0.66854    1.000
    H13      H        0.19740    0.53690    0.64870    1.000
    O7       O        0.05170    0.59000    0.58853    1.000
    O8       O        0.98830    0.57650    0.68933    1.000
    O9       O        0.04740    0.68850    0.72244    1.000
    O10      O        0.02360    0.68970    0.35719    1.000
    O11      O        0.09150    0.64880    0.43291    1.000
    O12      O        0.96107    0.59340    0.48539    1.000
    O13      O        0.82500    0.54370    0.43732    1.000
    O14      O        0.86990    0.64000    0.30576    1.000
    O15      O        0.75550    0.63050    0.35936    1.000
    O16      O        0.87900    0.33940    0.42270    1.000
    O17      O        0.96200    0.25800    0.47426    1.000
    O18      O        0.81337    0.41138    0.51083    1.000
    O19      O        0.96630    0.44698    0.55249    1.000
    O20      O        0.90850    0.43360    0.65748    1.000
    O21      O        0.84430    0.31630    0.64071    1.000
    O22      O        0.59660    0.56840    0.66045    1.000
    O23      O        0.66530    0.68190    0.64081    1.000
    O24      O        0.53220    0.55489    0.55742    1.000
    O25      O        0.68269    0.58855    0.51191    1.000
    O26      O        0.60830    0.65230    0.42383    1.000
    O27      O        0.52070    0.72840    0.47544    1.000
    O28      O        0.73070    0.37400    0.35852    1.000
    O29      O        0.61680    0.37030    0.30537    1.000
    O30      O        0.66620    0.45910    0.43896    1.000
    O31      O        0.52800    0.41230    0.48582    1.000
    O32      O        0.38930    0.37370    0.43536    1.000
    O33      O        0.44730    0.35860    0.35025    1.000
    O34      O        0.51240    0.42430    0.69379    1.000
    O35      O        0.44880    0.31300    0.72579    1.000
    O36      O        0.44920    0.41260    0.59213    1.000
    O37      O        0.30520    0.42760    0.68736    1.000
    H14      H        0.25310    0.43460    0.69180    1.000
    O38      O        0.30170    0.36850    0.54057    1.000
    O39      O        0.22870    0.46120    0.58819    1.000
    Li1      Li       0.16850    0.69950    0.37520    1.000
    Li2      Li       0.97010    0.70040    0.28810    1.000
    Li3      Li       0.77970    0.31990    0.70850    1.000
    Li4      Li       0.51620    0.30860    0.29300    1.000
    O40      O        0.70030    0.22170    0.69760    1.000
    Li5      Li       0.15450    0.44080    0.41670    1.000
    O41      O        0.22550    0.34150    0.40210    1.000
    O42      O        0.24270    0.50930    0.37440    1.000
    O43      O        0.04550    0.41530    0.38140    1.000
    Li6      Li       0.34510    0.56980    0.41920    1.000
    O44      O        0.26820    0.66970    0.42942    1.000
    H15      H        0.31000    0.70000    0.42900    1.000
    H16      H        0.24700    0.67500    0.46130    1.000
    O45      O        0.60950    0.27650    0.57660    1.000
    N2       N        0.09510    0.33610    0.67900    1.000
    O46      O        0.05600    0.29930    0.72000    1.000
    O47      O        0.11010    0.31150    0.63120    1.000
    O48      O        0.13210    0.41100    0.70940    1.000
    Li7      Li       0.64040    0.18880    0.62220    1.000
    O49      O        0.72740    0.21630    0.71500    1.000
    O50      O        0.20790    0.38620    0.42020    1.000
    O51      O        0.28390    0.51620    0.36210    1.000
    O52      O        0.61960    0.27440    0.55940    1.000
    O53      O        0.02570    0.36160    0.35560    1.000
    Cu9      Cu       0.42629    0.38223    0.01124    1.000
    Cu10     Cu       0.61311    0.49400    0.00320    1.000
    Cu11     Cu       0.51798    0.49043    0.12188    1.000
    N3       N        0.40550    0.64070    0.18830    1.000
    O54      O        0.40750    0.58350    0.15520    1.000
    O55      O        0.46370    0.69500    0.19180    1.000
    O56      O        0.34580    0.64110    0.22250    1.000
    Cu12     Cu       0.78391    0.40417    0.93205    1.000
    Cu13     Cu       0.73028    0.60534    0.93418    1.000
    Cu14     Cu       0.89231    0.50633    0.00661    1.000
    Cu15     Cu       0.98436    0.50549    0.12724    1.000
    Cu16     Cu       0.08262    0.60965    0.01469    1.000
    C25      C        0.27560    0.35090    0.07900    1.000
    C26      C        0.32490    0.35340    0.13540    1.000
    H17      H        0.30910    0.30370    0.15720    1.000
    C27      C        0.42010    0.35070    0.12690    1.000
    H18      H        0.43550    0.29630    0.11150    1.000
    C28      C        0.46450    0.36170    0.18390    1.000
    C29      C        0.47660    0.34120    0.90470    1.000
    C30      C        0.55870    0.36540    0.93400    1.000
    H19      H        0.59100    0.31520    0.94340    1.000
    C31      C        0.61620    0.42210    0.89840    1.000
    H20      H        0.58100    0.46640    0.88180    1.000
    C32      C        0.66500    0.37920    0.85030    1.000
    C33      C        0.59330    0.68910    0.97000    1.000
    C34      C        0.63390    0.65610    0.02380    1.000
    H21      H        0.66970    0.69960    0.04090    1.000
    C35      C        0.56820    0.63020    0.06740    1.000
    H22      H        0.52150    0.67100    0.06780    1.000
    C36      C        0.60890    0.62800    0.12630    1.000
    C37      C        0.88550    0.37190    0.12800    1.000
    C38      C        0.93110    0.36830    0.07110    1.000
    H23      H        0.97710    0.32700    0.07360    1.000
    C39      C        0.87100    0.34410    0.02380    1.000
    H24      H        0.83550    0.29770    0.03700    1.000
    C40      C        0.91870    0.31870    0.97120    1.000
    C41      C        0.84760    0.61190    0.85020    1.000
    C42      C        0.89480    0.56900    0.89850    1.000
    H25      H        0.92480    0.52100    0.88230    1.000
    C43      C        0.96030    0.62210    0.93080    1.000
    H26      H        0.93630    0.67770    0.93540    1.000
    C44      C        0.04710    0.62940    0.90220    1.000
    C45      C        0.03870    0.63510    0.18800    1.000
    C46      C        0.08570    0.64250    0.13207    1.000
    H27      H        0.07830    0.69880    0.11730    1.000
    C47      C        0.18090    0.62690    0.14150    1.000
    H28      H        0.20860    0.67960    0.15090    1.000
    C48      C        0.21990    0.59480    0.08660    1.000
    O57      O        0.31490    0.34020    0.03233    1.000
    O58      O        0.19720    0.35520    0.08103    1.000
    O59      O        0.30000    0.42090    0.16854    1.000
    H29      H        0.30260    0.46310    0.14870    1.000
    O60      O        0.44830    0.41000    0.08853    1.000
    O61      O        0.51170    0.42350    0.18933    1.000
    O62      O        0.45260    0.31150    0.22244    1.000
    O63      O        0.47640    0.31030    0.85719    1.000
    O64      O        0.40850    0.35120    0.93291    1.000
    O65      O        0.53893    0.40660    0.98539    1.000
    O66      O        0.67500    0.45630    0.93732    1.000
    O67      O        0.63010    0.36000    0.80576    1.000
    O68      O        0.74450    0.36950    0.85936    1.000
    O69      O        0.62100    0.66060    0.92270    1.000
    O70      O        0.53800    0.74200    0.97426    1.000
    O71      O        0.68663    0.58862    0.01083    1.000
    O72      O        0.53370    0.55302    0.05249    1.000
    O73      O        0.59150    0.56640    0.15748    1.000
    O74      O        0.65570    0.68370    0.14071    1.000
    O75      O        0.90340    0.43160    0.16045    1.000
    O76      O        0.83470    0.31810    0.14081    1.000
    O77      O        0.96780    0.44511    0.05742    1.000
    O78      O        0.81731    0.41145    0.01191    1.000
    O79      O        0.89170    0.34770    0.92383    1.000
    O80      O        0.97930    0.27160    0.97544    1.000
    O81      O        0.76930    0.62600    0.85852    1.000
    O82      O        0.88320    0.62970    0.80537    1.000
    O83      O        0.83380    0.54090    0.93896    1.000
    O84      O        0.97200    0.58770    0.98582    1.000
    O85      O        0.11070    0.62630    0.93536    1.000
    O86      O        0.05270    0.64140    0.85025    1.000
    O87      O        0.98760    0.57570    0.19379    1.000
    O88      O        0.05120    0.68700    0.22579    1.000
    O89      O        0.05080    0.58740    0.09213    1.000
    O90      O        0.19480    0.57240    0.18736    1.000
    H30      H        0.24690    0.56540    0.19180    1.000
    O91      O        0.19830    0.63150    0.04057    1.000
    O92      O        0.27130    0.53880    0.08819    1.000
    Li8      Li       0.33150    0.30050    0.87520    1.000
    Li9      Li       0.52990    0.29960    0.78810    1.000
    Li10     Li       0.72030    0.68010    0.20850    1.000
    Li11     Li       0.98380    0.69140    0.79300    1.000
    O93      O        0.79970    0.77830    0.19760    1.000
    Li12     Li       0.34550    0.55920    0.91670    1.000
    O94      O        0.27450    0.65850    0.90210    1.000
    O95      O        0.25730    0.49070    0.87440    1.000
    O96      O        0.45450    0.58470    0.88140    1.000
    Li13     Li       0.15490    0.43020    0.91920    1.000
    O97      O        0.23180    0.33030    0.92942    1.000
    H31      H        0.19000    0.30000    0.92900    1.000
    H32      H        0.25300    0.32500    0.96130    1.000
    O98      O        0.89050    0.72350    0.07660    1.000
    N4       N        0.40490    0.66390    0.17900    1.000
    O99      O        0.44400    0.70070    0.22000    1.000
    O100     O        0.38990    0.68850    0.13120    1.000
    O101     O        0.36790    0.58900    0.20940    1.000
    Li14     Li       0.85960    0.81120    0.12220    1.000
    O102     O        0.77260    0.78370    0.21500    1.000
    O103     O        0.29210    0.61380    0.92020    1.000
    O104     O        0.21610    0.48380    0.86210    1.000
    O105     O        0.88040    0.72560    0.05940    1.000
    O106     O        0.47430    0.63840    0.85560    1.000
    Cu17     Cu       0.92629    0.11777    0.98876    1.000
    Cu18     Cu       0.11311    0.00600    0.99680    1.000
    Cu19     Cu       0.01798    0.00957    0.87812    1.000
    N5       N        0.90550    0.85930    0.81170    1.000
    O107     O        0.90750    0.91650    0.84480    1.000
    O108     O        0.96370    0.80500    0.80820    1.000
    O109     O        0.84580    0.85890    0.77750    1.000
    Cu20     Cu       0.28391    0.09583    0.06795    1.000
    Cu21     Cu       0.23028    0.89466    0.06582    1.000
    Cu22     Cu       0.39231    0.99367    0.99339    1.000
    Cu23     Cu       0.48436    0.99451    0.87276    1.000
    Cu24     Cu       0.58262    0.89035    0.98531    1.000
    C49      C        0.77560    0.14910    0.92100    1.000
    C50      C        0.82490    0.14660    0.86460    1.000
    H33      H        0.80910    0.19630    0.84280    1.000
    C51      C        0.92010    0.14930    0.87310    1.000
    H34      H        0.93550    0.20370    0.88850    1.000
    C52      C        0.96450    0.13830    0.81610    1.000
    C53      C        0.97660    0.15880    0.09530    1.000
    C54      C        0.05870    0.13460    0.06600    1.000
    H35      H        0.09100    0.18480    0.05660    1.000
    C55      C        0.11620    0.07790    0.10160    1.000
    H36      H        0.08100    0.03360    0.11820    1.000
    C56      C        0.16500    0.12080    0.14970    1.000
    C57      C        0.09330    0.81090    0.03000    1.000
    C58      C        0.13390    0.84390    0.97620    1.000
    H37      H        0.16970    0.80040    0.95910    1.000
    C59      C        0.06820    0.86980    0.93260    1.000
    H38      H        0.02150    0.82900    0.93220    1.000
    C60      C        0.10890    0.87200    0.87370    1.000
    C61      C        0.38550    0.12810    0.87200    1.000
    C62      C        0.43110    0.13170    0.92890    1.000
    H39      H        0.47710    0.17300    0.92640    1.000
    C63      C        0.37100    0.15590    0.97620    1.000
    H40      H        0.33550    0.20230    0.96300    1.000
    C64      C        0.41870    0.18130    0.02880    1.000
    C65      C        0.34760    0.88810    0.14980    1.000
    C66      C        0.39480    0.93100    0.10150    1.000
    H41      H        0.42480    0.97900    0.11770    1.000
    C67      C        0.46030    0.87790    0.06920    1.000
    H42      H        0.43630    0.82230    0.06460    1.000
    C68      C        0.54710    0.87060    0.09780    1.000
    C69      C        0.53870    0.86490    0.81200    1.000
    C70      C        0.58570    0.85750    0.86793    1.000
    H43      H        0.57830    0.80120    0.88270    1.000
    C71      C        0.68090    0.87310    0.85850    1.000
    H44      H        0.70860    0.82040    0.84910    1.000
    C72      C        0.71990    0.90520    0.91340    1.000
    O110     O        0.81490    0.15980    0.96767    1.000
    O111     O        0.69720    0.14480    0.91897    1.000
    O112     O        0.80000    0.07910    0.83146    1.000
    H45      H        0.80260    0.03690    0.85130    1.000
    O113     O        0.94830    0.09000    0.91147    1.000
    O114     O        0.01170    0.07650    0.81067    1.000
    O115     O        0.95260    0.18850    0.77756    1.000
    O116     O        0.97640    0.18970    0.14281    1.000
    O117     O        0.90850    0.14880    0.06709    1.000
    O118     O        0.03893    0.09340    0.01461    1.000
    O119     O        0.17500    0.04370    0.06268    1.000
    O120     O        0.13010    0.14000    0.19424    1.000
    O121     O        0.24450    0.13050    0.14064    1.000
    O122     O        0.12100    0.83940    0.07730    1.000
    O123     O        0.03800    0.75800    0.02574    1.000
    O124     O        0.18663    0.91138    0.98917    1.000
    O125     O        0.03370    0.94698    0.94751    1.000
    O126     O        0.09150    0.93360    0.84252    1.000
    O127     O        0.15570    0.81630    0.85929    1.000
    O128     O        0.40340    0.06840    0.83955    1.000
    O129     O        0.33470    0.18190    0.85919    1.000
    O130     O        0.46780    0.05489    0.94258    1.000
    O131     O        0.31731    0.08855    0.98809    1.000
    O132     O        0.39170    0.15230    0.07617    1.000
    O133     O        0.47930    0.22840    0.02456    1.000
    O134     O        0.26930    0.87400    0.14148    1.000
    O135     O        0.38320    0.87030    0.19463    1.000
    O136     O        0.33380    0.95910    0.06104    1.000
    O137     O        0.47200    0.91230    0.01418    1.000
    O138     O        0.61070    0.87370    0.06464    1.000
    O139     O        0.55270    0.85860    0.14975    1.000
    O140     O        0.48760    0.92430    0.80621    1.000
    O141     O        0.55120    0.81300    0.77421    1.000
    O142     O        0.55080    0.91260    0.90787    1.000
    O143     O        0.69480    0.92760    0.81264    1.000
    H46      H        0.74690    0.93460    0.80820    1.000
    O144     O        0.69830    0.86850    0.95943    1.000
    O145     O        0.77130    0.96120    0.91181    1.000
    Li15     Li       0.83150    0.19950    0.12480    1.000
    Li16     Li       0.02990    0.20040    0.21190    1.000
    Li17     Li       0.22030    0.81990    0.79150    1.000
    Li18     Li       0.48380    0.80860    0.20700    1.000
    O146     O        0.29970    0.72170    0.80240    1.000
    Li19     Li       0.84550    0.94080    0.08330    1.000
    O147     O        0.77450    0.84150    0.09790    1.000
    O148     O        0.75730    0.00930    0.12560    1.000
    O149     O        0.95450    0.91530    0.11860    1.000
    Li20     Li       0.65490    0.06980    0.08080    1.000
    O150     O        0.73180    0.16970    0.07058    1.000
    H47      H        0.69000    0.20000    0.07100    1.000
    H48      H        0.75300    0.17500    0.03870    1.000
    O151     O        0.39050    0.77650    0.92340    1.000
    N6       N        0.90490    0.83610    0.82100    1.000
    O152     O        0.94400    0.79930    0.78000    1.000
    O153     O        0.88990    0.81150    0.86880    1.000
    O154     O        0.86790    0.91100    0.79060    1.000
    Li21     Li       0.35960    0.68880    0.87780    1.000
    O155     O        0.27260    0.71630    0.78500    1.000
    O156     O        0.79210    0.88620    0.07980    1.000
    O157     O        0.71610    0.01620    0.13790    1.000
    O158     O        0.38040    0.77440    0.94060    1.000
    O159     O        0.97430    0.86160    0.14440    1.000
    Cu25     Cu       0.57371    0.88223    0.48876    1.000
    Cu26     Cu       0.38689    0.99400    0.49680    1.000
    Cu27     Cu       0.48202    0.99043    0.37812    1.000
    N7       N        0.59450    0.14070    0.31170    1.000
    O160     O        0.59250    0.08350    0.34480    1.000
    O161     O        0.53630    0.19500    0.30820    1.000
    O162     O        0.65420    0.14110    0.27750    1.000
    Cu28     Cu       0.21609    0.90417    0.56795    1.000
    Cu29     Cu       0.26972    0.10534    0.56582    1.000
    Cu30     Cu       0.10769    0.00633    0.49339    1.000
    Cu31     Cu       0.01564    0.00549    0.37276    1.000
    Cu32     Cu       0.91738    0.10965    0.48531    1.000
    C73      C        0.72440    0.85090    0.42100    1.000
    C74      C        0.67510    0.85340    0.36460    1.000
    H49      H        0.69090    0.80370    0.34280    1.000
    C75      C        0.57990    0.85070    0.37310    1.000
    H50      H        0.56450    0.79630    0.38850    1.000
    C76      C        0.53550    0.86170    0.31610    1.000
    C77      C        0.52340    0.84120    0.59530    1.000
    C78      C        0.44130    0.86540    0.56600    1.000
    H51      H        0.40900    0.81520    0.55660    1.000
    C79      C        0.38380    0.92210    0.60160    1.000
    H52      H        0.41900    0.96640    0.61820    1.000
    C80      C        0.33500    0.87920    0.64970    1.000
    C81      C        0.40670    0.18910    0.53000    1.000
    C82      C        0.36610    0.15610    0.47620    1.000
    H53      H        0.33030    0.19960    0.45910    1.000
    C83      C        0.43180    0.13020    0.43260    1.000
    H54      H        0.47850    0.17100    0.43220    1.000
    C84      C        0.39110    0.12800    0.37370    1.000
    C85      C        0.11450    0.87190    0.37200    1.000
    C86      C        0.06890    0.86830    0.42890    1.000
    H55      H        0.02290    0.82700    0.42640    1.000
    C87      C        0.12900    0.84410    0.47620    1.000
    H56      H        0.16450    0.79770    0.46300    1.000
    C88      C        0.08130    0.81870    0.52880    1.000
    C89      C        0.15240    0.11190    0.64980    1.000
    C90      C        0.10520    0.06900    0.60150    1.000
    H57      H        0.07520    0.02100    0.61770    1.000
    C91      C        0.03970    0.12210    0.56920    1.000
    H58      H        0.06370    0.17770    0.56460    1.000
    C92      C        0.95290    0.12940    0.59780    1.000
    C93      C        0.96130    0.13510    0.31200    1.000
    C94      C        0.91430    0.14250    0.36793    1.000
    H59      H        0.92170    0.19880    0.38270    1.000
    C95      C        0.81910    0.12690    0.35850    1.000
    H60      H        0.79140    0.17960    0.34910    1.000
    C96      C        0.78010    0.09480    0.41340    1.000
    O163     O        0.68510    0.84020    0.46767    1.000
    O164     O        0.80280    0.85520    0.41897    1.000
    O165     O        0.70000    0.92090    0.33146    1.000
    H61      H        0.69740    0.96310    0.35130    1.000
    O166     O        0.55170    0.91000    0.41147    1.000
    O167     O        0.48830    0.92350    0.31067    1.000
    O168     O        0.54740    0.81150    0.27756    1.000
    O169     O        0.52360    0.81030    0.64281    1.000
    O170     O        0.59150    0.85120    0.56709    1.000
    O171     O        0.46107    0.90660    0.51461    1.000
    O172     O        0.32500    0.95630    0.56268    1.000
    O173     O        0.36990    0.86000    0.69424    1.000
    O174     O        0.25550    0.86950    0.64064    1.000
    O175     O        0.37900    0.16060    0.57730    1.000
    O176     O        0.46200    0.24200    0.52574    1.000
    O177     O        0.31337    0.08862    0.48917    1.000
    O178     O        0.46630    0.05302    0.44751    1.000
    O179     O        0.40850    0.06640    0.34252    1.000
    O180     O        0.34430    0.18370    0.35929    1.000
    O181     O        0.09660    0.93160    0.33955    1.000
    O182     O        0.16530    0.81810    0.35919    1.000
    O183     O        0.03220    0.94511    0.44258    1.000
    O184     O        0.18269    0.91145    0.48809    1.000
    O185     O        0.10830    0.84770    0.57617    1.000
    O186     O        0.02070    0.77160    0.52456    1.000
    O187     O        0.23070    0.12600    0.64148    1.000
    O188     O        0.11680    0.12970    0.69463    1.000
    O189     O        0.16620    0.04090    0.56104    1.000
    O190     O        0.02800    0.08770    0.51418    1.000
    O191     O        0.88930    0.12630    0.56464    1.000
    O192     O        0.94730    0.14140    0.64975    1.000
    O193     O        0.01240    0.07570    0.30621    1.000
    O194     O        0.94880    0.18700    0.27421    1.000
    O195     O        0.94920    0.08740    0.40787    1.000
    O196     O        0.80520    0.07240    0.31264    1.000
    H62      H        0.75310    0.06540    0.30820    1.000
    O197     O        0.80170    0.13150    0.45943    1.000
    O198     O        0.72870    0.03880    0.41181    1.000
    Li22     Li       0.66850    0.80050    0.62480    1.000
    Li23     Li       0.47010    0.79960    0.71190    1.000
    Li24     Li       0.27970    0.18010    0.29150    1.000
    Li25     Li       0.01620    0.19140    0.70700    1.000
    O199     O        0.20030    0.27830    0.30240    1.000
    Li26     Li       0.65450    0.05920    0.58330    1.000
    O200     O        0.72550    0.15850    0.59790    1.000
    O201     O        0.74270    0.99070    0.62560    1.000
    O202     O        0.54550    0.08470    0.61860    1.000
    Li27     Li       0.84510    0.93020    0.58080    1.000
    O203     O        0.76820    0.83030    0.57058    1.000
    H63      H        0.81000    0.80000    0.57100    1.000
    H64      H        0.74700    0.82500    0.53870    1.000
    O204     O        0.10950    0.22350    0.42340    1.000
    N8       N        0.59510    0.16390    0.32100    1.000
    O205     O        0.55600    0.20070    0.28000    1.000
    O206     O        0.61010    0.18850    0.36880    1.000
    O207     O        0.63210    0.08900    0.29060    1.000
    Li28     Li       0.14040    0.31120    0.37780    1.000
    O208     O        0.22740    0.28370    0.28500    1.000
    O209     O        0.70790    0.11380    0.57980    1.000
    O210     O        0.78390    0.98380    0.63790    1.000
    O211     O        0.11960    0.22560    0.44060    1.000
    O212     O        0.52570    0.13840    0.64440    1.000
