# CIF file generated by openbabel 3.1.0, see https://openbabel.org
data_I
_chemical_name_common 'image0'
_cell_length_a 41.686
_cell_length_b 19.05
_cell_length_c 29.292
_cell_angle_alpha 90
_cell_angle_beta 120.028
_cell_angle_gamma 90
_space_group_name_H-M_alt 'P 1'
_space_group_name_Hall 'P 1'
loop_
    _symmetry_equiv_pos_as_xyz
    x,y,z
loop_
    _atom_site_label
    _atom_site_type_symbol
    _atom_site_fract_x
    _atom_site_fract_y
    _atom_site_fract_z
    _atom_site_occupancy
    W1       W        0.58233    0.12112    0.69432    1.000
    W2       W        0.57912    0.12796    0.42079    1.000
    W3       W        0.59495    0.77573    0.56688    1.000
    Mn1      Mn       0.56582    0.85020    0.36804    1.000
    Mn2      Mn       0.56861    0.84340    0.72745    1.000
    Mn3      Mn       0.54751    0.31500    0.53544    1.000
    Mn4      Mn       0.67099    0.02690    0.61979    1.000
    C1       C        0.57320    0.12510    0.76200    1.000
    N1       N        0.56780    0.12630    0.79580    1.000
    C2       C        0.60470    0.21900    0.72780    1.000
    N2       N        0.61620    0.27500    0.74340    1.000
    C3       C        0.63500    0.09440    0.76250    1.000
    N3       N        0.66300    0.08270    0.79930    1.000
    C4       C        0.55370    0.06770    0.61970    1.000
    N4       N        0.53870    0.04190    0.57950    1.000
    C5       C        0.52440    0.13720    0.66800    1.000
    N5       N        0.49420    0.14230    0.65770    1.000
    C6       C        0.57790    0.01280    0.70650    1.000
    N6       N        0.57480    0.95370    0.71550    1.000
    C7       C        0.56570    0.19750    0.63220    1.000
    N7       N        0.55740    0.24070    0.59760    1.000
    C8       C        0.62180    0.09970    0.66950    1.000
    N8       N        0.64250    0.08400    0.65540    1.000
    C9       C        0.59290    0.23400    0.41300    1.000
    N9       N        0.60070    0.29600    0.41040    1.000
    C10      C        0.63340    0.11200    0.43040    1.000
    N10      N        0.66380    0.11200    0.43790    1.000
    C11      C        0.57370    0.13190    0.34310    1.000
    N11      N        0.56830    0.13230    0.30060    1.000
    C12      C        0.54740    0.07110    0.44730    1.000
    N12      N        0.53270    0.03920    0.46560    1.000
    C13      C        0.57930    0.01910    0.40100    1.000
    C14      C        0.52220    0.14700    0.36340    1.000
    N13      N        0.49200    0.15460    0.33030    1.000
    C15      C        0.56320    0.19510    0.46330    1.000
    N14      N        0.55400    0.23650    0.48590    1.000
    C16      C        0.61810    0.10100    0.50240    1.000
    N15      N        0.63740    0.08060    0.54590    1.000
    C17      C        0.60020    0.68100    0.60990    1.000
    N16      N        0.60110    0.62600    0.63280    1.000
    C18      C        0.60740    0.69200    0.52900    1.000
    N17      N        0.62600    0.66200    0.51600    1.000
    C19      C        0.65300    0.76100    0.61900    1.000
    N18      N        0.68400    0.76400    0.66600    1.000
    C20      C        0.55250    0.85810    0.53780    1.000
    N19      N        0.53130    0.89930    0.52210    1.000
    C21      C        0.58370    0.80450    0.48950    1.000
    C22      C        0.58550    0.80300    0.63190    1.000
    N20      N        0.57630    0.82000    0.66080    1.000
    C23      C        0.54220    0.72340    0.52410    1.000
    N21      N        0.51310    0.70010    0.50220    1.000
    C24      C        0.62180    0.87710    0.58730    1.000
    N22      N        0.63690    0.93070    0.59750    1.000
    N23      N        0.62760    0.82440    0.40520    1.000
    C25      C        0.65030    0.86180    0.39520    1.000
    H1       H        0.64060    0.89850    0.36980    1.000
    C26      C        0.68700    0.84800    0.42080    1.000
    H2       H        0.70290    0.87850    0.41540    1.000
    C27      C        0.70210    0.79200    0.45460    1.000
    C28      C        0.67780    0.75000    0.46330    1.000
    H3       H        0.68620    0.71130    0.48680    1.000
    C29      C        0.64110    0.76900    0.43550    1.000
    H4       H        0.62390    0.73960    0.43860    1.000
    C30      C        0.74060    0.77600    0.48350    1.000
    H5       H        0.75580    0.80780    0.47800    1.000
    N24      N        0.55510    0.73510    0.34250    1.000
    C31      C        0.54810    0.68610    0.36920    1.000
    H6       H        0.54430    0.70040    0.39720    1.000
    C32      C        0.54640    0.61560    0.35730    1.000
    H7       H        0.54090    0.58240    0.37680    1.000
    C33      C        0.55240    0.59250    0.31760    1.000
    C34      C        0.55150    0.64310    0.28340    1.000
    H8       H        0.54910    0.63100    0.25030    1.000
    C35      C        0.55430    0.71180    0.29910    1.000
    H9       H        0.55580    0.74610    0.27670    1.000
    C36      C        0.55140    0.51800    0.30600    1.000
    H10      H        0.54860    0.48530    0.32830    1.000
    N25      N        0.56270    0.27250    0.24060    1.000
    C37      C        0.56170    0.32260    0.20800    1.000
    H11      H        0.56270    0.30850    0.17760    1.000
    C38      C        0.55930    0.39370    0.21550    1.000
    H12      H        0.55960    0.42700    0.19160    1.000
    C39      C        0.55650    0.41570    0.25830    1.000
    C40      C        0.54680    0.36360    0.28200    1.000
    H13      H        0.53620    0.37560    0.30310    1.000
    C41      C        0.55250    0.29410    0.27500    1.000
    H14      H        0.54900    0.25970    0.29540    1.000
    C42      C        0.55430    0.49200    0.26500    1.000
    H15      H        0.55490    0.52370    0.24030    1.000
    N26      N        0.63110    0.83380    0.77780    1.000
    C43      C        0.65040    0.78300    0.77100    1.000
    H16      H        0.63740    0.74680    0.74560    1.000
    C44      C        0.68870    0.78100    0.79900    1.000
    H17      H        0.70140    0.74130    0.79620    1.000
    C45      C        0.68880    0.88600    0.84200    1.000
    H18      H        0.70120    0.92190    0.86720    1.000
    C46      C        0.65070    0.88100    0.81490    1.000
    H19      H        0.63740    0.91450    0.82330    1.000
    C47      C        0.70860    0.83600    0.83190    1.000
    C48      C        0.75280    0.84300    0.86400    1.000
    H20      H        0.76440    0.85180    0.90080    1.000
    N27      N        0.89090    0.83170    0.92320    1.000
    C49      C        0.87170    0.84400    0.94780    1.000
    H21      H        0.88510    0.84980    0.98500    1.000
    C50      C        0.83340    0.84800    0.92220    1.000
    H22      H        0.82130    0.85830    0.94160    1.000
    C51      C        0.81310    0.83700    0.86880    1.000
    C52      C        0.83270    0.83500    0.84220    1.000
    H23      H        0.82000    0.83690    0.80470    1.000
    C53      C        0.87090    0.82900    0.87030    1.000
    H24      H        0.88370    0.82250    0.85130    1.000
    C54      C        0.77200    0.83900    0.84500    1.000
    H25      H        0.75850    0.83640    0.80770    1.000
    N28      N        0.57460    0.84360    0.45070    1.000
    N29      N        0.57660    0.96280    0.38850    1.000
    C55      C        0.65000    0.87100    0.76000    1.000
    C56      C        0.68800    0.86500    0.78200    1.000
    C57      C        0.68920    0.81200    0.85570    1.000
    C58      C        0.65090    0.80900    0.82700    1.000
    H26      H        0.63680    0.90200    0.73120    1.000
    H27      H        0.69980    0.88160    0.76370    1.000
    H28      H        0.70210    0.79720    0.89150    1.000
    H29      H        0.63820    0.78800    0.84270    1.000
    W4       W        0.08233    0.62112    0.69432    1.000
    W5       W        0.07912    0.62796    0.42079    1.000
    W6       W        0.09495    0.27573    0.56688    1.000
    Mn5      Mn       0.06582    0.35020    0.36804    1.000
    Mn6      Mn       0.06861    0.34340    0.72745    1.000
    Mn7      Mn       0.04751    0.81500    0.53544    1.000
    Mn8      Mn       0.17099    0.52690    0.61979    1.000
    C59      C        0.07320    0.62510    0.76200    1.000
    N30      N        0.06780    0.62630    0.79580    1.000
    C60      C        0.10470    0.71900    0.72780    1.000
    N31      N        0.11620    0.77500    0.74340    1.000
    C61      C        0.13500    0.59440    0.76250    1.000
    N32      N        0.16300    0.58270    0.79930    1.000
    C62      C        0.05370    0.56770    0.61970    1.000
    N33      N        0.03870    0.54190    0.57950    1.000
    C63      C        0.02440    0.63720    0.66800    1.000
    N34      N        0.99420    0.64230    0.65770    1.000
    C64      C        0.07790    0.51280    0.70650    1.000
    N35      N        0.07480    0.45370    0.71550    1.000
    C65      C        0.06570    0.69750    0.63220    1.000
    N36      N        0.05740    0.74070    0.59760    1.000
    C66      C        0.12180    0.59970    0.66950    1.000
    N37      N        0.14250    0.58400    0.65540    1.000
    C67      C        0.09290    0.73400    0.41300    1.000
    N38      N        0.10070    0.79600    0.41040    1.000
    C68      C        0.13340    0.61200    0.43040    1.000
    N39      N        0.16380    0.61200    0.43790    1.000
    C69      C        0.07370    0.63190    0.34310    1.000
    N40      N        0.06830    0.63230    0.30060    1.000
    C70      C        0.04740    0.57110    0.44730    1.000
    N41      N        0.03270    0.53920    0.46560    1.000
    C71      C        0.07930    0.51910    0.40100    1.000
    C72      C        0.02220    0.64700    0.36340    1.000
    N42      N        0.99200    0.65460    0.33030    1.000
    C73      C        0.06320    0.69510    0.46330    1.000
    N43      N        0.05400    0.73650    0.48590    1.000
    C74      C        0.11810    0.60100    0.50240    1.000
    N44      N        0.13740    0.58060    0.54590    1.000
    C75      C        0.10020    0.18100    0.60990    1.000
    N45      N        0.10110    0.12600    0.63280    1.000
    C76      C        0.10740    0.19200    0.52900    1.000
    N46      N        0.12600    0.16200    0.51600    1.000
    C77      C        0.15300    0.26100    0.61900    1.000
    N47      N        0.18400    0.26400    0.66600    1.000
    C78      C        0.05250    0.35810    0.53780    1.000
    N48      N        0.03130    0.39930    0.52210    1.000
    C79      C        0.08370    0.30450    0.48950    1.000
    C80      C        0.08550    0.30300    0.63190    1.000
    N49      N        0.07630    0.32000    0.66080    1.000
    C81      C        0.04220    0.22340    0.52410    1.000
    N50      N        0.01310    0.20010    0.50220    1.000
    C82      C        0.12180    0.37710    0.58730    1.000
    N51      N        0.13690    0.43070    0.59750    1.000
    N52      N        0.12760    0.32440    0.40520    1.000
    C83      C        0.15030    0.36180    0.39520    1.000
    H30      H        0.14060    0.39850    0.36980    1.000
    C84      C        0.18700    0.34800    0.42080    1.000
    H31      H        0.20290    0.37850    0.41540    1.000
    C85      C        0.20210    0.29200    0.45460    1.000
    C86      C        0.17780    0.25000    0.46330    1.000
    H32      H        0.18620    0.21130    0.48680    1.000
    C87      C        0.14110    0.26900    0.43550    1.000
    H33      H        0.12390    0.23960    0.43860    1.000
    C88      C        0.24060    0.27600    0.48350    1.000
    H34      H        0.25580    0.30780    0.47800    1.000
    N53      N        0.05510    0.23510    0.34250    1.000
    C89      C        0.04810    0.18610    0.36920    1.000
    H35      H        0.04430    0.20040    0.39720    1.000
    C90      C        0.04640    0.11560    0.35730    1.000
    H36      H        0.04090    0.08240    0.37680    1.000
    C91      C        0.05240    0.09250    0.31760    1.000
    C92      C        0.05150    0.14310    0.28340    1.000
    H37      H        0.04910    0.13100    0.25030    1.000
    C93      C        0.05430    0.21180    0.29910    1.000
    H38      H        0.05580    0.24610    0.27670    1.000
    C94      C        0.05140    0.01800    0.30600    1.000
    H39      H        0.04860    0.98530    0.32830    1.000
    N54      N        0.06270    0.77250    0.24060    1.000
    C95      C        0.06170    0.82260    0.20800    1.000
    H40      H        0.06270    0.80850    0.17760    1.000
    C96      C        0.05930    0.89370    0.21550    1.000
    H41      H        0.05960    0.92700    0.19160    1.000
    C97      C        0.05650    0.91570    0.25830    1.000
    C98      C        0.04680    0.86360    0.28200    1.000
    H42      H        0.03620    0.87560    0.30310    1.000
    C99      C        0.05250    0.79410    0.27500    1.000
    H43      H        0.04900    0.75970    0.29540    1.000
    C100     C        0.05430    0.99200    0.26500    1.000
    H44      H        0.05490    0.02370    0.24030    1.000
    N55      N        0.13110    0.33380    0.77780    1.000
    C101     C        0.15040    0.28300    0.77100    1.000
    H45      H        0.13740    0.24680    0.74560    1.000
    C102     C        0.18870    0.28100    0.79900    1.000
    H46      H        0.20140    0.24130    0.79620    1.000
    C103     C        0.18880    0.38600    0.84200    1.000
    H47      H        0.20120    0.42190    0.86720    1.000
    C104     C        0.15070    0.38100    0.81490    1.000
    H48      H        0.13740    0.41450    0.82330    1.000
    C105     C        0.20860    0.33600    0.83190    1.000
    C106     C        0.25280    0.34300    0.86400    1.000
    H49      H        0.26440    0.35180    0.90080    1.000
    N56      N        0.39090    0.33170    0.92320    1.000
    C107     C        0.37170    0.34400    0.94780    1.000
    H50      H        0.38510    0.34980    0.98500    1.000
    C108     C        0.33340    0.34800    0.92220    1.000
    H51      H        0.32130    0.35830    0.94160    1.000
    C109     C        0.31310    0.33700    0.86880    1.000
    C110     C        0.33270    0.33500    0.84220    1.000
    H52      H        0.32000    0.33690    0.80470    1.000
    C111     C        0.37090    0.32900    0.87030    1.000
    H53      H        0.38370    0.32250    0.85130    1.000
    C112     C        0.27200    0.33900    0.84500    1.000
    H54      H        0.25850    0.33640    0.80770    1.000
    N57      N        0.07460    0.34360    0.45070    1.000
    N58      N        0.07660    0.46280    0.38850    1.000
    C113     C        0.15000    0.37100    0.76000    1.000
    C114     C        0.18800    0.36500    0.78200    1.000
    C115     C        0.18920    0.31200    0.85570    1.000
    C116     C        0.15090    0.30900    0.82700    1.000
    H55      H        0.13680    0.40200    0.73120    1.000
    H56      H        0.19980    0.38160    0.76370    1.000
    H57      H        0.20210    0.29720    0.89150    1.000
    H58      H        0.13820    0.28800    0.84270    1.000
    W7       W        0.41767    0.12112    0.80568    1.000
    W8       W        0.42088    0.12796    0.07921    1.000
    W9       W        0.40505    0.77573    0.93312    1.000
    Mn9      Mn       0.43418    0.85020    0.13196    1.000
    Mn10     Mn       0.43139    0.84340    0.77255    1.000
    Mn11     Mn       0.45249    0.31500    0.96456    1.000
    Mn12     Mn       0.32901    0.02690    0.88021    1.000
    C117     C        0.42680    0.12510    0.73800    1.000
    N59      N        0.43220    0.12630    0.70420    1.000
    C118     C        0.39530    0.21900    0.77220    1.000
    N60      N        0.38380    0.27500    0.75660    1.000
    C119     C        0.36500    0.09440    0.73750    1.000
    N61      N        0.33700    0.08270    0.70070    1.000
    C120     C        0.44630    0.06770    0.88030    1.000
    N62      N        0.46130    0.04190    0.92050    1.000
    C121     C        0.47560    0.13720    0.83200    1.000
    N63      N        0.50580    0.14230    0.84230    1.000
    C122     C        0.42210    0.01280    0.79350    1.000
    N64      N        0.42520    0.95370    0.78450    1.000
    C123     C        0.43430    0.19750    0.86780    1.000
    N65      N        0.44260    0.24070    0.90240    1.000
    C124     C        0.37820    0.09970    0.83050    1.000
    N66      N        0.35750    0.08400    0.84460    1.000
    C125     C        0.40710    0.23400    0.08700    1.000
    N67      N        0.39930    0.29600    0.08960    1.000
    C126     C        0.36660    0.11200    0.06960    1.000
    N68      N        0.33620    0.11200    0.06210    1.000
    C127     C        0.42630    0.13190    0.15690    1.000
    N69      N        0.43170    0.13230    0.19940    1.000
    C128     C        0.45260    0.07110    0.05270    1.000
    N70      N        0.46730    0.03920    0.03440    1.000
    C129     C        0.42070    0.01910    0.09900    1.000
    C130     C        0.47780    0.14700    0.13660    1.000
    N71      N        0.50800    0.15460    0.16970    1.000
    C131     C        0.43680    0.19510    0.03670    1.000
    N72      N        0.44600    0.23650    0.01410    1.000
    C132     C        0.38190    0.10100    0.99760    1.000
    N73      N        0.36260    0.08060    0.95410    1.000
    C133     C        0.39980    0.68100    0.89010    1.000
    N74      N        0.39890    0.62600    0.86720    1.000
    C134     C        0.39260    0.69200    0.97100    1.000
    N75      N        0.37400    0.66200    0.98400    1.000
    C135     C        0.34700    0.76100    0.88100    1.000
    N76      N        0.31600    0.76400    0.83400    1.000
    C136     C        0.44750    0.85810    0.96220    1.000
    N77      N        0.46870    0.89930    0.97790    1.000
    C137     C        0.41630    0.80450    0.01050    1.000
    C138     C        0.41450    0.80300    0.86810    1.000
    N78      N        0.42370    0.82000    0.83920    1.000
    C139     C        0.45780    0.72340    0.97590    1.000
    N79      N        0.48690    0.70010    0.99780    1.000
    C140     C        0.37820    0.87710    0.91270    1.000
    N80      N        0.36310    0.93070    0.90250    1.000
    N81      N        0.37240    0.82440    0.09480    1.000
    C141     C        0.34970    0.86180    0.10480    1.000
    H59      H        0.35940    0.89850    0.13020    1.000
    C142     C        0.31300    0.84800    0.07920    1.000
    H60      H        0.29710    0.87850    0.08460    1.000
    C143     C        0.29790    0.79200    0.04540    1.000
    C144     C        0.32220    0.75000    0.03670    1.000
    H61      H        0.31380    0.71130    0.01320    1.000
    C145     C        0.35890    0.76900    0.06450    1.000
    H62      H        0.37610    0.73960    0.06140    1.000
    C146     C        0.25940    0.77600    0.01650    1.000
    H63      H        0.24420    0.80780    0.02200    1.000
    N82      N        0.44490    0.73510    0.15750    1.000
    C147     C        0.45190    0.68610    0.13080    1.000
    H64      H        0.45570    0.70040    0.10280    1.000
    C148     C        0.45360    0.61560    0.14270    1.000
    H65      H        0.45910    0.58240    0.12320    1.000
    C149     C        0.44760    0.59250    0.18240    1.000
    C150     C        0.44850    0.64310    0.21660    1.000
    H66      H        0.45090    0.63100    0.24970    1.000
    C151     C        0.44570    0.71180    0.20090    1.000
    H67      H        0.44420    0.74610    0.22330    1.000
    C152     C        0.44860    0.51800    0.19400    1.000
    H68      H        0.45140    0.48530    0.17170    1.000
    N83      N        0.43730    0.27250    0.25940    1.000
    C153     C        0.43830    0.32260    0.29200    1.000
    H69      H        0.43730    0.30850    0.32240    1.000
    C154     C        0.44070    0.39370    0.28450    1.000
    H70      H        0.44040    0.42700    0.30840    1.000
    C155     C        0.44350    0.41570    0.24170    1.000
    C156     C        0.45320    0.36360    0.21800    1.000
    H71      H        0.46380    0.37560    0.19690    1.000
    C157     C        0.44750    0.29410    0.22500    1.000
    H72      H        0.45100    0.25970    0.20460    1.000
    C158     C        0.44570    0.49200    0.23500    1.000
    H73      H        0.44510    0.52370    0.25970    1.000
    N84      N        0.36890    0.83380    0.72220    1.000
    C159     C        0.34960    0.78300    0.72900    1.000
    H74      H        0.36260    0.74680    0.75440    1.000
    C160     C        0.31130    0.78100    0.70100    1.000
    H75      H        0.29860    0.74130    0.70380    1.000
    C161     C        0.31120    0.88600    0.65800    1.000
    H76      H        0.29880    0.92190    0.63280    1.000
    C162     C        0.34930    0.88100    0.68510    1.000
    H77      H        0.36260    0.91450    0.67670    1.000
    C163     C        0.29140    0.83600    0.66810    1.000
    C164     C        0.24720    0.84300    0.63600    1.000
    H78      H        0.23560    0.85180    0.59920    1.000
    N85      N        0.10910    0.83170    0.57680    1.000
    C165     C        0.12830    0.84400    0.55220    1.000
    H79      H        0.11490    0.84980    0.51500    1.000
    C166     C        0.16660    0.84800    0.57780    1.000
    H80      H        0.17870    0.85830    0.55840    1.000
    C167     C        0.18690    0.83700    0.63120    1.000
    C168     C        0.16730    0.83500    0.65780    1.000
    H81      H        0.18000    0.83690    0.69530    1.000
    C169     C        0.12910    0.82900    0.62970    1.000
    H82      H        0.11630    0.82250    0.64870    1.000
    C170     C        0.22800    0.83900    0.65500    1.000
    H83      H        0.24150    0.83640    0.69230    1.000
    N86      N        0.42540    0.84360    0.04930    1.000
    N87      N        0.42340    0.96280    0.11150    1.000
    C171     C        0.35000    0.87100    0.74000    1.000
    C172     C        0.31200    0.86500    0.71800    1.000
    C173     C        0.31080    0.81200    0.64430    1.000
    C174     C        0.34910    0.80900    0.67300    1.000
    H84      H        0.36320    0.90200    0.76880    1.000
    H85      H        0.30020    0.88160    0.73630    1.000
    H86      H        0.29790    0.79720    0.60850    1.000
    H87      H        0.36180    0.78800    0.65730    1.000
    W10      W        0.91767    0.62112    0.80568    1.000
    W11      W        0.92088    0.62796    0.07921    1.000
    W12      W        0.90505    0.27573    0.93312    1.000
    Mn13     Mn       0.93418    0.35020    0.13196    1.000
    Mn14     Mn       0.93139    0.34340    0.77255    1.000
    Mn15     Mn       0.95249    0.81500    0.96456    1.000
    Mn16     Mn       0.82901    0.52690    0.88021    1.000
    C175     C        0.92680    0.62510    0.73800    1.000
    N88      N        0.93220    0.62630    0.70420    1.000
    C176     C        0.89530    0.71900    0.77220    1.000
    N89      N        0.88380    0.77500    0.75660    1.000
    C177     C        0.86500    0.59440    0.73750    1.000
    N90      N        0.83700    0.58270    0.70070    1.000
    C178     C        0.94630    0.56770    0.88030    1.000
    N91      N        0.96130    0.54190    0.92050    1.000
    C179     C        0.97560    0.63720    0.83200    1.000
    N92      N        0.00580    0.64230    0.84230    1.000
    C180     C        0.92210    0.51280    0.79350    1.000
    N93      N        0.92520    0.45370    0.78450    1.000
    C181     C        0.93430    0.69750    0.86780    1.000
    N94      N        0.94260    0.74070    0.90240    1.000
    C182     C        0.87820    0.59970    0.83050    1.000
    N95      N        0.85750    0.58400    0.84460    1.000
    C183     C        0.90710    0.73400    0.08700    1.000
    N96      N        0.89930    0.79600    0.08960    1.000
    C184     C        0.86660    0.61200    0.06960    1.000
    N97      N        0.83620    0.61200    0.06210    1.000
    C185     C        0.92630    0.63190    0.15690    1.000
    N98      N        0.93170    0.63230    0.19940    1.000
    C186     C        0.95260    0.57110    0.05270    1.000
    N99      N        0.96730    0.53920    0.03440    1.000
    C187     C        0.92070    0.51910    0.09900    1.000
    C188     C        0.97780    0.64700    0.13660    1.000
    N100     N        0.00800    0.65460    0.16970    1.000
    C189     C        0.93680    0.69510    0.03670    1.000
    N101     N        0.94600    0.73650    0.01410    1.000
    C190     C        0.88190    0.60100    0.99760    1.000
    N102     N        0.86260    0.58060    0.95410    1.000
    C191     C        0.89980    0.18100    0.89010    1.000
    N103     N        0.89890    0.12600    0.86720    1.000
    C192     C        0.89260    0.19200    0.97100    1.000
    N104     N        0.87400    0.16200    0.98400    1.000
    C193     C        0.84700    0.26100    0.88100    1.000
    N105     N        0.81600    0.26400    0.83400    1.000
    C194     C        0.94750    0.35810    0.96220    1.000
    N106     N        0.96870    0.39930    0.97790    1.000
    C195     C        0.91630    0.30450    0.01050    1.000
    C196     C        0.91450    0.30300    0.86810    1.000
    N107     N        0.92370    0.32000    0.83920    1.000
    C197     C        0.95780    0.22340    0.97590    1.000
    N108     N        0.98690    0.20010    0.99780    1.000
    C198     C        0.87820    0.37710    0.91270    1.000
    N109     N        0.86310    0.43070    0.90250    1.000
    N110     N        0.87240    0.32440    0.09480    1.000
    C199     C        0.84970    0.36180    0.10480    1.000
    H88      H        0.85940    0.39850    0.13020    1.000
    C200     C        0.81300    0.34800    0.07920    1.000
    H89      H        0.79710    0.37850    0.08460    1.000
    C201     C        0.79790    0.29200    0.04540    1.000
    C202     C        0.82220    0.25000    0.03670    1.000
    H90      H        0.81380    0.21130    0.01320    1.000
    C203     C        0.85890    0.26900    0.06450    1.000
    H91      H        0.87610    0.23960    0.06140    1.000
    C204     C        0.75940    0.27600    0.01650    1.000
    H92      H        0.74420    0.30780    0.02200    1.000
    N111     N        0.94490    0.23510    0.15750    1.000
    C205     C        0.95190    0.18610    0.13080    1.000
    H93      H        0.95570    0.20040    0.10280    1.000
    C206     C        0.95360    0.11560    0.14270    1.000
    H94      H        0.95910    0.08240    0.12320    1.000
    C207     C        0.94760    0.09250    0.18240    1.000
    C208     C        0.94850    0.14310    0.21660    1.000
    H95      H        0.95090    0.13100    0.24970    1.000
    C209     C        0.94570    0.21180    0.20090    1.000
    H96      H        0.94420    0.24610    0.22330    1.000
    C210     C        0.94860    0.01800    0.19400    1.000
    H97      H        0.95140    0.98530    0.17170    1.000
    N112     N        0.93730    0.77250    0.25940    1.000
    C211     C        0.93830    0.82260    0.29200    1.000
    H98      H        0.93730    0.80850    0.32240    1.000
    C212     C        0.94070    0.89370    0.28450    1.000
    H99      H        0.94040    0.92700    0.30840    1.000
    C213     C        0.94350    0.91570    0.24170    1.000
    C214     C        0.95320    0.86360    0.21800    1.000
    H100     H        0.96380    0.87560    0.19690    1.000
    C215     C        0.94750    0.79410    0.22500    1.000
    H101     H        0.95100    0.75970    0.20460    1.000
    C216     C        0.94570    0.99200    0.23500    1.000
    H102     H        0.94510    0.02370    0.25970    1.000
    N113     N        0.86890    0.33380    0.72220    1.000
    C217     C        0.84960    0.28300    0.72900    1.000
    H103     H        0.86260    0.24680    0.75440    1.000
    C218     C        0.81130    0.28100    0.70100    1.000
    H104     H        0.79860    0.24130    0.70380    1.000
    C219     C        0.81120    0.38600    0.65800    1.000
    H105     H        0.79880    0.42190    0.63280    1.000
    C220     C        0.84930    0.38100    0.68510    1.000
    H106     H        0.86260    0.41450    0.67670    1.000
    C221     C        0.79140    0.33600    0.66810    1.000
    C222     C        0.74720    0.34300    0.63600    1.000
    H107     H        0.73560    0.35180    0.59920    1.000
    N114     N        0.60910    0.33170    0.57680    1.000
    C223     C        0.62830    0.34400    0.55220    1.000
    H108     H        0.61490    0.34980    0.51500    1.000
    C224     C        0.66660    0.34800    0.57780    1.000
    H109     H        0.67870    0.35830    0.55840    1.000
    C225     C        0.68690    0.33700    0.63120    1.000
    C226     C        0.66730    0.33500    0.65780    1.000
    H110     H        0.68000    0.33690    0.69530    1.000
    C227     C        0.62910    0.32900    0.62970    1.000
    H111     H        0.61630    0.32250    0.64870    1.000
    C228     C        0.72800    0.33900    0.65500    1.000
    H112     H        0.74150    0.33640    0.69230    1.000
    N115     N        0.92540    0.34360    0.04930    1.000
    N116     N        0.92340    0.46280    0.11150    1.000
    C229     C        0.85000    0.37100    0.74000    1.000
    C230     C        0.81200    0.36500    0.71800    1.000
    C231     C        0.81080    0.31200    0.64430    1.000
    C232     C        0.84910    0.30900    0.67300    1.000
    H113     H        0.86320    0.40200    0.76880    1.000
    H114     H        0.80020    0.38160    0.73630    1.000
    H115     H        0.79790    0.29720    0.60850    1.000
    H116     H        0.86180    0.28800    0.65730    1.000
    W13      W        0.41767    0.87888    0.30568    1.000
    W14      W        0.42088    0.87204    0.57921    1.000
    W15      W        0.40505    0.22427    0.43312    1.000
    Mn17     Mn       0.43418    0.14980    0.63196    1.000
    Mn18     Mn       0.43139    0.15660    0.27255    1.000
    Mn19     Mn       0.45249    0.68500    0.46456    1.000
    Mn20     Mn       0.32901    0.97310    0.38021    1.000
    C233     C        0.42680    0.87490    0.23800    1.000
    N117     N        0.43220    0.87370    0.20420    1.000
    C234     C        0.39530    0.78100    0.27220    1.000
    N118     N        0.38380    0.72500    0.25660    1.000
    C235     C        0.36500    0.90560    0.23750    1.000
    N119     N        0.33700    0.91730    0.20070    1.000
    C236     C        0.44630    0.93230    0.38030    1.000
    N120     N        0.46130    0.95810    0.42050    1.000
    C237     C        0.47560    0.86280    0.33200    1.000
    N121     N        0.50580    0.85770    0.34230    1.000
    C238     C        0.42210    0.98720    0.29350    1.000
    N122     N        0.42520    0.04630    0.28450    1.000
    C239     C        0.43430    0.80250    0.36780    1.000
    N123     N        0.44260    0.75930    0.40240    1.000
    C240     C        0.37820    0.90030    0.33050    1.000
    N124     N        0.35750    0.91600    0.34460    1.000
    C241     C        0.40710    0.76600    0.58700    1.000
    N125     N        0.39930    0.70400    0.58960    1.000
    C242     C        0.36660    0.88800    0.56960    1.000
    N126     N        0.33620    0.88800    0.56210    1.000
    C243     C        0.42630    0.86810    0.65690    1.000
    N127     N        0.43170    0.86770    0.69940    1.000
    C244     C        0.45260    0.92890    0.55270    1.000
    N128     N        0.46730    0.96080    0.53440    1.000
    C245     C        0.42070    0.98090    0.59900    1.000
    C246     C        0.47780    0.85300    0.63660    1.000
    N129     N        0.50800    0.84540    0.66970    1.000
    C247     C        0.43680    0.80490    0.53670    1.000
    N130     N        0.44600    0.76350    0.51410    1.000
    C248     C        0.38190    0.89900    0.49760    1.000
    N131     N        0.36260    0.91940    0.45410    1.000
    C249     C        0.39980    0.31900    0.39010    1.000
    N132     N        0.39890    0.37400    0.36720    1.000
    C250     C        0.39260    0.30800    0.47100    1.000
    N133     N        0.37400    0.33800    0.48400    1.000
    C251     C        0.34700    0.23900    0.38100    1.000
    N134     N        0.31600    0.23600    0.33400    1.000
    C252     C        0.44750    0.14190    0.46220    1.000
    N135     N        0.46870    0.10070    0.47790    1.000
    C253     C        0.41630    0.19550    0.51050    1.000
    C254     C        0.41450    0.19700    0.36810    1.000
    N136     N        0.42370    0.18000    0.33920    1.000
    C255     C        0.45780    0.27660    0.47590    1.000
    N137     N        0.48690    0.29990    0.49780    1.000
    C256     C        0.37820    0.12290    0.41270    1.000
    N138     N        0.36310    0.06930    0.40250    1.000
    N139     N        0.37240    0.17560    0.59480    1.000
    C257     C        0.34970    0.13820    0.60480    1.000
    H117     H        0.35940    0.10150    0.63020    1.000
    C258     C        0.31300    0.15200    0.57920    1.000
    H118     H        0.29710    0.12150    0.58460    1.000
    C259     C        0.29790    0.20800    0.54540    1.000
    C260     C        0.32220    0.25000    0.53670    1.000
    H119     H        0.31380    0.28870    0.51320    1.000
    C261     C        0.35890    0.23100    0.56450    1.000
    H120     H        0.37610    0.26040    0.56140    1.000
    C262     C        0.25940    0.22400    0.51650    1.000
    H121     H        0.24420    0.19220    0.52200    1.000
    N140     N        0.44490    0.26490    0.65750    1.000
    C263     C        0.45190    0.31390    0.63080    1.000
    H122     H        0.45570    0.29960    0.60280    1.000
    C264     C        0.45360    0.38440    0.64270    1.000
    H123     H        0.45910    0.41760    0.62320    1.000
    C265     C        0.44760    0.40750    0.68240    1.000
    C266     C        0.44850    0.35690    0.71660    1.000
    H124     H        0.45090    0.36900    0.74970    1.000
    C267     C        0.44570    0.28820    0.70090    1.000
    H125     H        0.44420    0.25390    0.72330    1.000
    C268     C        0.44860    0.48200    0.69400    1.000
    H126     H        0.45140    0.51470    0.67170    1.000
    N141     N        0.43730    0.72750    0.75940    1.000
    C269     C        0.43830    0.67740    0.79200    1.000
    H127     H        0.43730    0.69150    0.82240    1.000
    C270     C        0.44070    0.60630    0.78450    1.000
    H128     H        0.44040    0.57300    0.80840    1.000
    C271     C        0.44350    0.58430    0.74170    1.000
    C272     C        0.45320    0.63640    0.71800    1.000
    H129     H        0.46380    0.62440    0.69690    1.000
    C273     C        0.44750    0.70590    0.72500    1.000
    H130     H        0.45100    0.74030    0.70460    1.000
    C274     C        0.44570    0.50800    0.73500    1.000
    H131     H        0.44510    0.47630    0.75970    1.000
    N142     N        0.36890    0.16620    0.22220    1.000
    C275     C        0.34960    0.21700    0.22900    1.000
    H132     H        0.36260    0.25320    0.25440    1.000
    C276     C        0.31130    0.21900    0.20100    1.000
    H133     H        0.29860    0.25870    0.20380    1.000
    C277     C        0.31120    0.11400    0.15800    1.000
    H134     H        0.29880    0.07810    0.13280    1.000
    C278     C        0.34930    0.11900    0.18510    1.000
    H135     H        0.36260    0.08550    0.17670    1.000
    C279     C        0.29140    0.16400    0.16810    1.000
    C280     C        0.24720    0.15700    0.13600    1.000
    H136     H        0.23560    0.14820    0.09920    1.000
    N143     N        0.10910    0.16830    0.07680    1.000
    C281     C        0.12830    0.15600    0.05220    1.000
    H137     H        0.11490    0.15020    0.01500    1.000
    C282     C        0.16660    0.15200    0.07780    1.000
    H138     H        0.17870    0.14170    0.05840    1.000
    C283     C        0.18690    0.16300    0.13120    1.000
    C284     C        0.16730    0.16500    0.15780    1.000
    H139     H        0.18000    0.16310    0.19530    1.000
    C285     C        0.12910    0.17100    0.12970    1.000
    H140     H        0.11630    0.17750    0.14870    1.000
    C286     C        0.22800    0.16100    0.15500    1.000
    H141     H        0.24150    0.16360    0.19230    1.000
    N144     N        0.42540    0.15640    0.54930    1.000
    N145     N        0.42340    0.03720    0.61150    1.000
    C287     C        0.35000    0.12900    0.24000    1.000
    C288     C        0.31200    0.13500    0.21800    1.000
    C289     C        0.31080    0.18800    0.14430    1.000
    C290     C        0.34910    0.19100    0.17300    1.000
    H142     H        0.36320    0.09800    0.26880    1.000
    H143     H        0.30020    0.11840    0.23630    1.000
    H144     H        0.29790    0.20280    0.10850    1.000
    H145     H        0.36180    0.21200    0.15730    1.000
    W16      W        0.91767    0.37888    0.30568    1.000
    W17      W        0.92088    0.37204    0.57921    1.000
    W18      W        0.90505    0.72427    0.43312    1.000
    Mn21     Mn       0.93418    0.64980    0.63196    1.000
    Mn22     Mn       0.93139    0.65660    0.27255    1.000
    Mn23     Mn       0.95249    0.18500    0.46456    1.000
    Mn24     Mn       0.82901    0.47310    0.38021    1.000
    C291     C        0.92680    0.37490    0.23800    1.000
    N146     N        0.93220    0.37370    0.20420    1.000
    C292     C        0.89530    0.28100    0.27220    1.000
    N147     N        0.88380    0.22500    0.25660    1.000
    C293     C        0.86500    0.40560    0.23750    1.000
    N148     N        0.83700    0.41730    0.20070    1.000
    C294     C        0.94630    0.43230    0.38030    1.000
    N149     N        0.96130    0.45810    0.42050    1.000
    C295     C        0.97560    0.36280    0.33200    1.000
    N150     N        0.00580    0.35770    0.34230    1.000
    C296     C        0.92210    0.48720    0.29350    1.000
    N151     N        0.92520    0.54630    0.28450    1.000
    C297     C        0.93430    0.30250    0.36780    1.000
    N152     N        0.94260    0.25930    0.40240    1.000
    C298     C        0.87820    0.40030    0.33050    1.000
    N153     N        0.85750    0.41600    0.34460    1.000
    C299     C        0.90710    0.26600    0.58700    1.000
    N154     N        0.89930    0.20400    0.58960    1.000
    C300     C        0.86660    0.38800    0.56960    1.000
    N155     N        0.83620    0.38800    0.56210    1.000
    C301     C        0.92630    0.36810    0.65690    1.000
    N156     N        0.93170    0.36770    0.69940    1.000
    C302     C        0.95260    0.42890    0.55270    1.000
    N157     N        0.96730    0.46080    0.53440    1.000
    C303     C        0.92070    0.48090    0.59900    1.000
    C304     C        0.97780    0.35300    0.63660    1.000
    N158     N        0.00800    0.34540    0.66970    1.000
    C305     C        0.93680    0.30490    0.53670    1.000
    N159     N        0.94600    0.26350    0.51410    1.000
    C306     C        0.88190    0.39900    0.49760    1.000
    N160     N        0.86260    0.41940    0.45410    1.000
    C307     C        0.89980    0.81900    0.39010    1.000
    N161     N        0.89890    0.87400    0.36720    1.000
    C308     C        0.89260    0.80800    0.47100    1.000
    N162     N        0.87400    0.83800    0.48400    1.000
    C309     C        0.84700    0.73900    0.38100    1.000
    N163     N        0.81600    0.73600    0.33400    1.000
    C310     C        0.94750    0.64190    0.46220    1.000
    N164     N        0.96870    0.60070    0.47790    1.000
    C311     C        0.91630    0.69550    0.51050    1.000
    C312     C        0.91450    0.69700    0.36810    1.000
    N165     N        0.92370    0.68000    0.33920    1.000
    C313     C        0.95780    0.77660    0.47590    1.000
    N166     N        0.98690    0.79990    0.49780    1.000
    C314     C        0.87820    0.62290    0.41270    1.000
    N167     N        0.86310    0.56930    0.40250    1.000
    N168     N        0.87240    0.67560    0.59480    1.000
    C315     C        0.84970    0.63820    0.60480    1.000
    H146     H        0.85940    0.60150    0.63020    1.000
    C316     C        0.81300    0.65200    0.57920    1.000
    H147     H        0.79710    0.62150    0.58460    1.000
    C317     C        0.79790    0.70800    0.54540    1.000
    C318     C        0.82220    0.75000    0.53670    1.000
    H148     H        0.81380    0.78870    0.51320    1.000
    C319     C        0.85890    0.73100    0.56450    1.000
    H149     H        0.87610    0.76040    0.56140    1.000
    C320     C        0.75940    0.72400    0.51650    1.000
    H150     H        0.74420    0.69220    0.52200    1.000
    N169     N        0.94490    0.76490    0.65750    1.000
    C321     C        0.95190    0.81390    0.63080    1.000
    H151     H        0.95570    0.79960    0.60280    1.000
    C322     C        0.95360    0.88440    0.64270    1.000
    H152     H        0.95910    0.91760    0.62320    1.000
    C323     C        0.94760    0.90750    0.68240    1.000
    C324     C        0.94850    0.85690    0.71660    1.000
    H153     H        0.95090    0.86900    0.74970    1.000
    C325     C        0.94570    0.78820    0.70090    1.000
    H154     H        0.94420    0.75390    0.72330    1.000
    C326     C        0.94860    0.98200    0.69400    1.000
    H155     H        0.95140    0.01470    0.67170    1.000
    N170     N        0.93730    0.22750    0.75940    1.000
    C327     C        0.93830    0.17740    0.79200    1.000
    H156     H        0.93730    0.19150    0.82240    1.000
    C328     C        0.94070    0.10630    0.78450    1.000
    H157     H        0.94040    0.07300    0.80840    1.000
    C329     C        0.94350    0.08430    0.74170    1.000
    C330     C        0.95320    0.13640    0.71800    1.000
    H158     H        0.96380    0.12440    0.69690    1.000
    C331     C        0.94750    0.20590    0.72500    1.000
    H159     H        0.95100    0.24030    0.70460    1.000
    C332     C        0.94570    0.00800    0.73500    1.000
    H160     H        0.94510    0.97630    0.75970    1.000
    N171     N        0.86890    0.66620    0.22220    1.000
    C333     C        0.84960    0.71700    0.22900    1.000
    H161     H        0.86260    0.75320    0.25440    1.000
    C334     C        0.81130    0.71900    0.20100    1.000
    H162     H        0.79860    0.75870    0.20380    1.000
    C335     C        0.81120    0.61400    0.15800    1.000
    H163     H        0.79880    0.57810    0.13280    1.000
    C336     C        0.84930    0.61900    0.18510    1.000
    H164     H        0.86260    0.58550    0.17670    1.000
    C337     C        0.79140    0.66400    0.16810    1.000
    C338     C        0.74720    0.65700    0.13600    1.000
    H165     H        0.73560    0.64820    0.09920    1.000
    N172     N        0.60910    0.66830    0.07680    1.000
    C339     C        0.62830    0.65600    0.05220    1.000
    H166     H        0.61490    0.65020    0.01500    1.000
    C340     C        0.66660    0.65200    0.07780    1.000
    H167     H        0.67870    0.64170    0.05840    1.000
    C341     C        0.68690    0.66300    0.13120    1.000
    C342     C        0.66730    0.66500    0.15780    1.000
    H168     H        0.68000    0.66310    0.19530    1.000
    C343     C        0.62910    0.67100    0.12970    1.000
    H169     H        0.61630    0.67750    0.14870    1.000
    C344     C        0.72800    0.66100    0.15500    1.000
    H170     H        0.74150    0.66360    0.19230    1.000
    N173     N        0.92540    0.65640    0.54930    1.000
    N174     N        0.92340    0.53720    0.61150    1.000
    C345     C        0.85000    0.62900    0.24000    1.000
    C346     C        0.81200    0.63500    0.21800    1.000
    C347     C        0.81080    0.68800    0.14430    1.000
    C348     C        0.84910    0.69100    0.17300    1.000
    H171     H        0.86320    0.59800    0.26880    1.000
    H172     H        0.80020    0.61840    0.23630    1.000
    H173     H        0.79790    0.70280    0.10850    1.000
    H174     H        0.86180    0.71200    0.15730    1.000
    W19      W        0.58233    0.87888    0.19432    1.000
    W20      W        0.57912    0.87204    0.92079    1.000
    W21      W        0.59495    0.22427    0.06688    1.000
    Mn25     Mn       0.56582    0.14980    0.86804    1.000
    Mn26     Mn       0.56861    0.15660    0.22745    1.000
    Mn27     Mn       0.54751    0.68500    0.03544    1.000
    Mn28     Mn       0.67099    0.97310    0.11979    1.000
    C349     C        0.57320    0.87490    0.26200    1.000
    N175     N        0.56780    0.87370    0.29580    1.000
    C350     C        0.60470    0.78100    0.22780    1.000
    N176     N        0.61620    0.72500    0.24340    1.000
    C351     C        0.63500    0.90560    0.26250    1.000
    N177     N        0.66300    0.91730    0.29930    1.000
    C352     C        0.55370    0.93230    0.11970    1.000
    N178     N        0.53870    0.95810    0.07950    1.000
    C353     C        0.52440    0.86280    0.16800    1.000
    N179     N        0.49420    0.85770    0.15770    1.000
    C354     C        0.57790    0.98720    0.20650    1.000
    N180     N        0.57480    0.04630    0.21550    1.000
    C355     C        0.56570    0.80250    0.13220    1.000
    N181     N        0.55740    0.75930    0.09760    1.000
    C356     C        0.62180    0.90030    0.16950    1.000
    N182     N        0.64250    0.91600    0.15540    1.000
    C357     C        0.59290    0.76600    0.91300    1.000
    N183     N        0.60070    0.70400    0.91040    1.000
    C358     C        0.63340    0.88800    0.93040    1.000
    N184     N        0.66380    0.88800    0.93790    1.000
    C359     C        0.57370    0.86810    0.84310    1.000
    N185     N        0.56830    0.86770    0.80060    1.000
    C360     C        0.54740    0.92890    0.94730    1.000
    N186     N        0.53270    0.96080    0.96560    1.000
    C361     C        0.57930    0.98090    0.90100    1.000
    C362     C        0.52220    0.85300    0.86340    1.000
    N187     N        0.49200    0.84540    0.83030    1.000
    C363     C        0.56320    0.80490    0.96330    1.000
    N188     N        0.55400    0.76350    0.98590    1.000
    C364     C        0.61810    0.89900    0.00240    1.000
    N189     N        0.63740    0.91940    0.04590    1.000
    C365     C        0.60020    0.31900    0.10990    1.000
    N190     N        0.60110    0.37400    0.13280    1.000
    C366     C        0.60740    0.30800    0.02900    1.000
    N191     N        0.62600    0.33800    0.01600    1.000
    C367     C        0.65300    0.23900    0.11900    1.000
    N192     N        0.68400    0.23600    0.16600    1.000
    C368     C        0.55250    0.14190    0.03780    1.000
    N193     N        0.53130    0.10070    0.02210    1.000
    C369     C        0.58370    0.19550    0.98950    1.000
    C370     C        0.58550    0.19700    0.13190    1.000
    N194     N        0.57630    0.18000    0.16080    1.000
    C371     C        0.54220    0.27660    0.02410    1.000
    N195     N        0.51310    0.29990    0.00220    1.000
    C372     C        0.62180    0.12290    0.08730    1.000
    N196     N        0.63690    0.06930    0.09750    1.000
    N197     N        0.62760    0.17560    0.90520    1.000
    C373     C        0.65030    0.13820    0.89520    1.000
    H175     H        0.64060    0.10150    0.86980    1.000
    C374     C        0.68700    0.15200    0.92080    1.000
    H176     H        0.70290    0.12150    0.91540    1.000
    C375     C        0.70210    0.20800    0.95460    1.000
    C376     C        0.67780    0.25000    0.96330    1.000
    H177     H        0.68620    0.28870    0.98680    1.000
    C377     C        0.64110    0.23100    0.93550    1.000
    H178     H        0.62390    0.26040    0.93860    1.000
    C378     C        0.74060    0.22400    0.98350    1.000
    H179     H        0.75580    0.19220    0.97800    1.000
    N198     N        0.55510    0.26490    0.84250    1.000
    C379     C        0.54810    0.31390    0.86920    1.000
    H180     H        0.54430    0.29960    0.89720    1.000
    C380     C        0.54640    0.38440    0.85730    1.000
    H181     H        0.54090    0.41760    0.87680    1.000
    C381     C        0.55240    0.40750    0.81760    1.000
    C382     C        0.55150    0.35690    0.78340    1.000
    H182     H        0.54910    0.36900    0.75030    1.000
    C383     C        0.55430    0.28820    0.79910    1.000
    H183     H        0.55580    0.25390    0.77670    1.000
    C384     C        0.55140    0.48200    0.80600    1.000
    H184     H        0.54860    0.51470    0.82830    1.000
    N199     N        0.56270    0.72750    0.74060    1.000
    C385     C        0.56170    0.67740    0.70800    1.000
    H185     H        0.56270    0.69150    0.67760    1.000
    C386     C        0.55930    0.60630    0.71550    1.000
    H186     H        0.55960    0.57300    0.69160    1.000
    C387     C        0.55650    0.58430    0.75830    1.000
    C388     C        0.54680    0.63640    0.78200    1.000
    H187     H        0.53620    0.62440    0.80310    1.000
    C389     C        0.55250    0.70590    0.77500    1.000
    H188     H        0.54900    0.74030    0.79540    1.000
    C390     C        0.55430    0.50800    0.76500    1.000
    H189     H        0.55490    0.47630    0.74030    1.000
    N200     N        0.63110    0.16620    0.27780    1.000
    C391     C        0.65040    0.21700    0.27100    1.000
    H190     H        0.63740    0.25320    0.24560    1.000
    C392     C        0.68870    0.21900    0.29900    1.000
    H191     H        0.70140    0.25870    0.29620    1.000
    C393     C        0.68880    0.11400    0.34200    1.000
    H192     H        0.70120    0.07810    0.36720    1.000
    C394     C        0.65070    0.11900    0.31490    1.000
    H193     H        0.63740    0.08550    0.32330    1.000
    C395     C        0.70860    0.16400    0.33190    1.000
    C396     C        0.75280    0.15700    0.36400    1.000
    H194     H        0.76440    0.14820    0.40080    1.000
    N201     N        0.89090    0.16830    0.42320    1.000
    C397     C        0.87170    0.15600    0.44780    1.000
    H195     H        0.88510    0.15020    0.48500    1.000
    C398     C        0.83340    0.15200    0.42220    1.000
    H196     H        0.82130    0.14170    0.44160    1.000
    C399     C        0.81310    0.16300    0.36880    1.000
    C400     C        0.83270    0.16500    0.34220    1.000
    H197     H        0.82000    0.16310    0.30470    1.000
    C401     C        0.87090    0.17100    0.37030    1.000
    H198     H        0.88370    0.17750    0.35130    1.000
    C402     C        0.77200    0.16100    0.34500    1.000
    H199     H        0.75850    0.16360    0.30770    1.000
    N202     N        0.57460    0.15640    0.95070    1.000
    N203     N        0.57660    0.03720    0.88850    1.000
    C403     C        0.65000    0.12900    0.26000    1.000
    C404     C        0.68800    0.13500    0.28200    1.000
    C405     C        0.68920    0.18800    0.35570    1.000
    C406     C        0.65090    0.19100    0.32700    1.000
    H200     H        0.63680    0.09800    0.23120    1.000
    H201     H        0.69980    0.11840    0.26370    1.000
    H202     H        0.70210    0.20280    0.39150    1.000
    H203     H        0.63820    0.21200    0.34270    1.000
    W22      W        0.08233    0.37888    0.19432    1.000
    W23      W        0.07912    0.37204    0.92079    1.000
    W24      W        0.09495    0.72427    0.06688    1.000
    Mn29     Mn       0.06582    0.64980    0.86804    1.000
    Mn30     Mn       0.06861    0.65660    0.22745    1.000
    Mn31     Mn       0.04751    0.18500    0.03544    1.000
    Mn32     Mn       0.17099    0.47310    0.11979    1.000
    C407     C        0.07320    0.37490    0.26200    1.000
    N204     N        0.06780    0.37370    0.29580    1.000
    C408     C        0.10470    0.28100    0.22780    1.000
    N205     N        0.11620    0.22500    0.24340    1.000
    C409     C        0.13500    0.40560    0.26250    1.000
    N206     N        0.16300    0.41730    0.29930    1.000
    C410     C        0.05370    0.43230    0.11970    1.000
    N207     N        0.03870    0.45810    0.07950    1.000
    C411     C        0.02440    0.36280    0.16800    1.000
    N208     N        0.99420    0.35770    0.15770    1.000
    C412     C        0.07790    0.48720    0.20650    1.000
    N209     N        0.07480    0.54630    0.21550    1.000
    C413     C        0.06570    0.30250    0.13220    1.000
    N210     N        0.05740    0.25930    0.09760    1.000
    C414     C        0.12180    0.40030    0.16950    1.000
    N211     N        0.14250    0.41600    0.15540    1.000
    C415     C        0.09290    0.26600    0.91300    1.000
    N212     N        0.10070    0.20400    0.91040    1.000
    C416     C        0.13340    0.38800    0.93040    1.000
    N213     N        0.16380    0.38800    0.93790    1.000
    C417     C        0.07370    0.36810    0.84310    1.000
    N214     N        0.06830    0.36770    0.80060    1.000
    C418     C        0.04740    0.42890    0.94730    1.000
    N215     N        0.03270    0.46080    0.96560    1.000
    C419     C        0.07930    0.48090    0.90100    1.000
    C420     C        0.02220    0.35300    0.86340    1.000
    N216     N        0.99200    0.34540    0.83030    1.000
    C421     C        0.06320    0.30490    0.96330    1.000
    N217     N        0.05400    0.26350    0.98590    1.000
    C422     C        0.11810    0.39900    0.00240    1.000
    N218     N        0.13740    0.41940    0.04590    1.000
    C423     C        0.10020    0.81900    0.10990    1.000
    N219     N        0.10110    0.87400    0.13280    1.000
    C424     C        0.10740    0.80800    0.02900    1.000
    N220     N        0.12600    0.83800    0.01600    1.000
    C425     C        0.15300    0.73900    0.11900    1.000
    N221     N        0.18400    0.73600    0.16600    1.000
    C426     C        0.05250    0.64190    0.03780    1.000
    N222     N        0.03130    0.60070    0.02210    1.000
    C427     C        0.08370    0.69550    0.98950    1.000
    C428     C        0.08550    0.69700    0.13190    1.000
    N223     N        0.07630    0.68000    0.16080    1.000
    C429     C        0.04220    0.77660    0.02410    1.000
    N224     N        0.01310    0.79990    0.00220    1.000
    C430     C        0.12180    0.62290    0.08730    1.000
    N225     N        0.13690    0.56930    0.09750    1.000
    N226     N        0.12760    0.67560    0.90520    1.000
    C431     C        0.15030    0.63820    0.89520    1.000
    H204     H        0.14060    0.60150    0.86980    1.000
    C432     C        0.18700    0.65200    0.92080    1.000
    H205     H        0.20290    0.62150    0.91540    1.000
    C433     C        0.20210    0.70800    0.95460    1.000
    C434     C        0.17780    0.75000    0.96330    1.000
    H206     H        0.18620    0.78870    0.98680    1.000
    C435     C        0.14110    0.73100    0.93550    1.000
    H207     H        0.12390    0.76040    0.93860    1.000
    C436     C        0.24060    0.72400    0.98350    1.000
    H208     H        0.25580    0.69220    0.97800    1.000
    N227     N        0.05510    0.76490    0.84250    1.000
    C437     C        0.04810    0.81390    0.86920    1.000
    H209     H        0.04430    0.79960    0.89720    1.000
    C438     C        0.04640    0.88440    0.85730    1.000
    H210     H        0.04090    0.91760    0.87680    1.000
    C439     C        0.05240    0.90750    0.81760    1.000
    C440     C        0.05150    0.85690    0.78340    1.000
    H211     H        0.04910    0.86900    0.75030    1.000
    C441     C        0.05430    0.78820    0.79910    1.000
    H212     H        0.05580    0.75390    0.77670    1.000
    C442     C        0.05140    0.98200    0.80600    1.000
    H213     H        0.04860    0.01470    0.82830    1.000
    N228     N        0.06270    0.22750    0.74060    1.000
    C443     C        0.06170    0.17740    0.70800    1.000
    H214     H        0.06270    0.19150    0.67760    1.000
    C444     C        0.05930    0.10630    0.71550    1.000
    H215     H        0.05960    0.07300    0.69160    1.000
    C445     C        0.05650    0.08430    0.75830    1.000
    C446     C        0.04680    0.13640    0.78200    1.000
    H216     H        0.03620    0.12440    0.80310    1.000
    C447     C        0.05250    0.20590    0.77500    1.000
    H217     H        0.04900    0.24030    0.79540    1.000
    C448     C        0.05430    0.00800    0.76500    1.000
    H218     H        0.05490    0.97630    0.74030    1.000
    N229     N        0.13110    0.66620    0.27780    1.000
    C449     C        0.15040    0.71700    0.27100    1.000
    H219     H        0.13740    0.75320    0.24560    1.000
    C450     C        0.18870    0.71900    0.29900    1.000
    H220     H        0.20140    0.75870    0.29620    1.000
    C451     C        0.18880    0.61400    0.34200    1.000
    H221     H        0.20120    0.57810    0.36720    1.000
    C452     C        0.15070    0.61900    0.31490    1.000
    H222     H        0.13740    0.58550    0.32330    1.000
    C453     C        0.20860    0.66400    0.33190    1.000
    C454     C        0.25280    0.65700    0.36400    1.000
    H223     H        0.26440    0.64820    0.40080    1.000
    N230     N        0.39090    0.66830    0.42320    1.000
    C455     C        0.37170    0.65600    0.44780    1.000
    H224     H        0.38510    0.65020    0.48500    1.000
    C456     C        0.33340    0.65200    0.42220    1.000
    H225     H        0.32130    0.64170    0.44160    1.000
    C457     C        0.31310    0.66300    0.36880    1.000
    C458     C        0.33270    0.66500    0.34220    1.000
    H226     H        0.32000    0.66310    0.30470    1.000
    C459     C        0.37090    0.67100    0.37030    1.000
    H227     H        0.38370    0.67750    0.35130    1.000
    C460     C        0.27200    0.66100    0.34500    1.000
    H228     H        0.25850    0.66360    0.30770    1.000
    N231     N        0.07460    0.65640    0.95070    1.000
    N232     N        0.07660    0.53720    0.88850    1.000
    C461     C        0.15000    0.62900    0.26000    1.000
    C462     C        0.18800    0.63500    0.28200    1.000
    C463     C        0.18920    0.68800    0.35570    1.000
    C464     C        0.15090    0.69100    0.32700    1.000
    H229     H        0.13680    0.59800    0.23120    1.000
    H230     H        0.19980    0.61840    0.26370    1.000
    H231     H        0.20210    0.70280    0.39150    1.000
    H232     H        0.13820    0.71200    0.34270    1.000
    Mn33     Mn       0.50000    0.00000    0.50000    1.000
    Mn34     Mn       0.00000    0.50000    0.50000    1.000
    Mn35     Mn       0.50000    0.00000    0.00000    1.000
    Mn36     Mn       0.00000    0.50000    0.00000    1.000
