# CIF file generated by openbabel 3.1.0, see https://openbabel.org
data_I
_chemical_name_common 'image0'
_cell_length_a 15.278
_cell_length_b 7.664
_cell_length_c 15.553
_cell_angle_alpha 90
_cell_angle_beta 105.41
_cell_angle_gamma 90
_space_group_name_H-M_alt 'P 1'
_space_group_name_Hall 'P 1'
loop_
    _symmetry_equiv_pos_as_xyz
    x,y,z
loop_
    _atom_site_label
    _atom_site_type_symbol
    _atom_site_fract_x
    _atom_site_fract_y
    _atom_site_fract_z
    _atom_site_occupancy
    Cd1      Cd       0.31942    0.56599    0.15534    1.000
    C1       C        0.26380    0.70400    0.02910    1.000
    C2       C        0.46310    0.60630    0.22760    1.000
    N1       N        0.29220    0.81480    0.23430    1.000
    C3       C        0.24660    0.39200    0.22770    1.000
    C4       C        0.20780    0.31480    0.26570    1.000
    N2       N        0.23620    0.79600    0.97090    1.000
    Cd2      Cd       0.81942    0.06599    0.15534    1.000
    C5       C        0.76380    0.20400    0.02910    1.000
    C6       C        0.96310    0.10630    0.22760    1.000
    N3       N        0.79220    0.31480    0.23430    1.000
    C7       C        0.74660    0.89200    0.22770    1.000
    C8       C        0.70780    0.81480    0.26570    1.000
    N4       N        0.73620    0.29600    0.97090    1.000
    Cd3      Cd       0.68058    0.56599    0.34466    1.000
    C9       C        0.73620    0.70400    0.47090    1.000
    C10      C        0.53690    0.60630    0.27240    1.000
    C11      C        0.75340    0.39200    0.27230    1.000
    N5       N        0.76380    0.79600    0.52910    1.000
    Cd4      Cd       0.18058    0.06599    0.34466    1.000
    C12      C        0.23620    0.20400    0.47090    1.000
    C13      C        0.03690    0.10630    0.27240    1.000
    C14      C        0.25340    0.89200    0.27230    1.000
    N6       N        0.26380    0.29600    0.52910    1.000
    Cd5      Cd       0.68058    0.43401    0.84466    1.000
    C15      C        0.53690    0.39370    0.77240    1.000
    N7       N        0.70780    0.18520    0.76570    1.000
    C16      C        0.75340    0.60800    0.77230    1.000
    C17      C        0.79220    0.68520    0.73430    1.000
    Cd6      Cd       0.18058    0.93401    0.84466    1.000
    C18      C        0.03690    0.89370    0.77240    1.000
    N8       N        0.20780    0.68520    0.76570    1.000
    C19      C        0.25340    0.10800    0.77230    1.000
    C20      C        0.29220    0.18520    0.73430    1.000
    Cd7      Cd       0.31942    0.43401    0.65534    1.000
    C21      C        0.46310    0.39370    0.72760    1.000
    C22      C        0.24660    0.60800    0.72770    1.000
    Cd8      Cd       0.81942    0.93401    0.65534    1.000
    C23      C        0.96310    0.89370    0.72760    1.000
    C24      C        0.74660    0.10800    0.72770    1.000
