# CIF file generated by openbabel 3.1.0, see https://openbabel.org
data_I
_chemical_name_common 'image0'
_cell_length_a 10.702
_cell_length_b 26.6173
_cell_length_c 8.5189
_cell_angle_alpha 90
_cell_angle_beta 90
_cell_angle_gamma 90
_space_group_name_H-M_alt 'P 1'
_space_group_name_Hall 'P 1'
loop_
    _symmetry_equiv_pos_as_xyz
    x,y,z
loop_
    _atom_site_label
    _atom_site_type_symbol
    _atom_site_fract_x
    _atom_site_fract_y
    _atom_site_fract_z
    _atom_site_occupancy
    Zn1      Zn       0.39932    0.54797    0.59564    1.000
    C1       C        0.36170    0.45318    0.23240    1.000
    H1       H        0.38470    0.42420    0.17880    1.000
    C2       C        0.25660    0.51579    0.31400    1.000
    C3       C        0.34440    0.64998    0.58090    1.000
    C4       C        0.37320    0.70373    0.61110    1.000
    C5       C        0.47340    0.72346    0.68900    1.000
    H2       H        0.53490    0.70410    0.73680    1.000
    N1       N        0.24820    0.47478    0.21950    1.000
    N2       N        0.43610    0.47735    0.32840    1.000
    N3       N        0.36800    0.51856    0.38380    1.000
    N4       N        0.16520    0.55050    0.32940    1.000
    H3       H        0.17710    0.57650    0.38740    1.000
    H4       H        0.09530    0.54660    0.28130    1.000
    O1       O        0.43070    0.61935    0.62150    1.000
    O2       O        0.24370    0.63836    0.52050    1.000
    Zn2      Zn       0.10068    0.45203    0.09564    1.000
    C6       C        0.13830    0.54682    0.73240    1.000
    H5       H        0.11530    0.57580    0.67880    1.000
    C7       C        0.24340    0.48421    0.81400    1.000
    C8       C        0.15560    0.35002    0.08090    1.000
    C9       C        0.12680    0.29627    0.11110    1.000
    C10      C        0.02660    0.27654    0.18900    1.000
    H6       H        0.96510    0.29590    0.23680    1.000
    N5       N        0.25180    0.52522    0.71950    1.000
    N6       N        0.06390    0.52265    0.82840    1.000
    N7       N        0.13200    0.48144    0.88380    1.000
    N8       N        0.33480    0.44950    0.82940    1.000
    H7       H        0.32290    0.42350    0.88740    1.000
    H8       H        0.40470    0.45340    0.78130    1.000
    O3       O        0.06930    0.38065    0.12150    1.000
    O4       O        0.25630    0.36164    0.02050    1.000
    Zn3      Zn       0.60068    0.04797    0.40436    1.000
    C11      C        0.63830    0.95318    0.76760    1.000
    H9       H        0.61530    0.92420    0.82120    1.000
    C12      C        0.74340    0.01579    0.68600    1.000
    C13      C        0.65560    0.14998    0.41910    1.000
    C14      C        0.62680    0.20373    0.38890    1.000
    C15      C        0.52660    0.22346    0.31100    1.000
    H10      H        0.46510    0.20410    0.26320    1.000
    N9       N        0.75180    0.97478    0.78050    1.000
    N10      N        0.56390    0.97735    0.67160    1.000
    N11      N        0.63200    0.01856    0.61620    1.000
    N12      N        0.83480    0.05050    0.67060    1.000
    H11      H        0.82290    0.07650    0.61260    1.000
    H12      H        0.90470    0.04660    0.71870    1.000
    O5       O        0.56930    0.11935    0.37850    1.000
    O6       O        0.75630    0.13836    0.47950    1.000
    Zn4      Zn       0.89932    0.95203    0.90436    1.000
    C16      C        0.86170    0.04682    0.26760    1.000
    H13      H        0.88470    0.07580    0.32120    1.000
    C17      C        0.75660    0.98421    0.18600    1.000
    C18      C        0.84440    0.85002    0.91910    1.000
    C19      C        0.87320    0.79627    0.88890    1.000
    C20      C        0.97340    0.77654    0.81100    1.000
    H14      H        0.03490    0.79590    0.76320    1.000
    N13      N        0.74820    0.02522    0.28050    1.000
    N14      N        0.93610    0.02265    0.17160    1.000
    N15      N        0.86800    0.98144    0.11620    1.000
    N16      N        0.66520    0.94950    0.17060    1.000
    H15      H        0.67710    0.92350    0.11260    1.000
    H16      H        0.59530    0.95340    0.21870    1.000
    O7       O        0.93070    0.88065    0.87850    1.000
    O8       O        0.74370    0.86164    0.97950    1.000
    Zn5      Zn       0.60068    0.45203    0.40436    1.000
    C21      C        0.63830    0.54682    0.76760    1.000
    H17      H        0.61530    0.57580    0.82120    1.000
    C22      C        0.74340    0.48421    0.68600    1.000
    C23      C        0.65560    0.35002    0.41910    1.000
    C24      C        0.62680    0.29627    0.38890    1.000
    C25      C        0.52660    0.27654    0.31100    1.000
    H18      H        0.46510    0.29590    0.26320    1.000
    N17      N        0.75180    0.52522    0.78050    1.000
    N18      N        0.56390    0.52265    0.67160    1.000
    N19      N        0.63200    0.48144    0.61620    1.000
    N20      N        0.83480    0.44950    0.67060    1.000
    H19      H        0.82290    0.42350    0.61260    1.000
    H20      H        0.90470    0.45340    0.71870    1.000
    O9       O        0.56930    0.38065    0.37850    1.000
    O10      O        0.75630    0.36164    0.47950    1.000
    Zn6      Zn       0.89932    0.54797    0.90436    1.000
    C26      C        0.86170    0.45318    0.26760    1.000
    H21      H        0.88470    0.42420    0.32120    1.000
    C27      C        0.75660    0.51579    0.18600    1.000
    C28      C        0.84440    0.64998    0.91910    1.000
    C29      C        0.87320    0.70373    0.88890    1.000
    C30      C        0.97340    0.72346    0.81100    1.000
    H22      H        0.03490    0.70410    0.76320    1.000
    N21      N        0.74820    0.47478    0.28050    1.000
    N22      N        0.93610    0.47735    0.17160    1.000
    N23      N        0.86800    0.51856    0.11620    1.000
    N24      N        0.66520    0.55050    0.17060    1.000
    H23      H        0.67710    0.57650    0.11260    1.000
    H24      H        0.59530    0.54660    0.21870    1.000
    O11      O        0.93070    0.61935    0.87850    1.000
    O12      O        0.74370    0.63836    0.97950    1.000
    Zn7      Zn       0.39932    0.95203    0.59564    1.000
    C31      C        0.36170    0.04682    0.23240    1.000
    H25      H        0.38470    0.07580    0.17880    1.000
    C32      C        0.25660    0.98421    0.31400    1.000
    C33      C        0.34440    0.85002    0.58090    1.000
    C34      C        0.37320    0.79627    0.61110    1.000
    C35      C        0.47340    0.77654    0.68900    1.000
    H26      H        0.53490    0.79590    0.73680    1.000
    N25      N        0.24820    0.02522    0.21950    1.000
    N26      N        0.43610    0.02265    0.32840    1.000
    N27      N        0.36800    0.98144    0.38380    1.000
    N28      N        0.16520    0.94950    0.32940    1.000
    H27      H        0.17710    0.92350    0.38740    1.000
    H28      H        0.09530    0.95340    0.28130    1.000
    O13      O        0.43070    0.88065    0.62150    1.000
    O14      O        0.24370    0.86164    0.52050    1.000
    Zn8      Zn       0.10068    0.04797    0.09564    1.000
    C36      C        0.13830    0.95318    0.73240    1.000
    H29      H        0.11530    0.92420    0.67880    1.000
    C37      C        0.24340    0.01579    0.81400    1.000
    C38      C        0.15560    0.14998    0.08090    1.000
    C39      C        0.12680    0.20373    0.11110    1.000
    C40      C        0.02660    0.22346    0.18900    1.000
    H30      H        0.96510    0.20410    0.23680    1.000
    N29      N        0.25180    0.97478    0.71950    1.000
    N30      N        0.06390    0.97735    0.82840    1.000
    N31      N        0.13200    0.01856    0.88380    1.000
    N32      N        0.33480    0.05050    0.82940    1.000
    H31      H        0.32290    0.07650    0.88740    1.000
    H32      H        0.40470    0.04660    0.78130    1.000
    O15      O        0.06930    0.11935    0.12150    1.000
    O16      O        0.25630    0.13836    0.02050    1.000
    S1       S        0.27708    0.75000    0.53877    1.000
    S2       S        0.22292    0.25000    0.03877    1.000
    S3       S        0.72292    0.25000    0.46123    1.000
    S4       S        0.77708    0.75000    0.96123    1.000
