# CIF file generated by openbabel 3.1.0, see https://openbabel.org
data_I
_chemical_name_common 'EVURAP_clean'
_cell_length_a 9.6047
_cell_length_b 10.0427
_cell_length_c 11.4589
_cell_angle_alpha 96.126
_cell_angle_beta 97.2065
_cell_angle_gamma 111.859
_space_group_name_H-M_alt 'P 1'
_space_group_name_Hall 'P 1'
loop_
    _symmetry_equiv_pos_as_xyz
    x,y,z
loop_
    _atom_site_label
    _atom_site_type_symbol
    _atom_site_fract_x
    _atom_site_fract_y
    _atom_site_fract_z
    _atom_site_occupancy
    Ce1      Ce       0.71324    0.95492    0.00822    1.000
    Ce2      Ce       0.28676    0.04508    0.99178    1.000
    H1       H        0.68230    0.50510    0.97370    1.000
    H2       H        0.80400    0.21040    0.78810    1.000
    H3       H        0.07770    0.63840    0.84460    1.000
    H4       H        0.82900    0.40960    0.58140    1.000
    H5       H        0.74580    0.29680    0.38220    1.000
    H6       H        0.05020    0.10720    0.41830    1.000
    H7       H        0.16780    0.15270    0.68150    1.000
    H8       H        0.26210    0.30380    0.68460    1.000
    H9       H        0.31770    0.49490    0.02630    1.000
    H10      H        0.19600    0.78960    0.21190    1.000
    H11      H        0.92230    0.36160    0.15540    1.000
    H12      H        0.17100    0.59040    0.41860    1.000
    H13      H        0.25420    0.70320    0.61780    1.000
    H14      H        0.94980    0.89280    0.58170    1.000
    H15      H        0.83220    0.84730    0.31850    1.000
    H16      H        0.73790    0.69620    0.31540    1.000
    C1       C        0.92180    0.74700    0.97740    1.000
    C2       C        0.88690    0.59320    0.92050    1.000
    C3       C        0.75250    0.48300    0.93200    1.000
    C4       C        0.72050    0.33970    0.88260    1.000
    C5       C        0.42200    0.77890    0.10120    1.000
    C6       C        0.82230    0.30820    0.81910    1.000
    C7       C        0.94980    0.42110    0.80200    1.000
    C8       C        0.98630    0.56290    0.85400    1.000
    C9       C        0.99100    0.32630    0.61740    1.000
    C10      C        0.87430    0.34850    0.54800    1.000
    C11      C        0.82460    0.28110    0.43010    1.000
    C12      C        0.88960    0.19080    0.38180    1.000
    C13      C        0.82960    0.10950    0.25730    1.000
    C14      C        0.00630    0.16950    0.45170    1.000
    C15      C        0.05930    0.23810    0.56930    1.000
    C16      C        0.07820    0.25300    0.02260    1.000
    C17      C        0.11310    0.40680    0.07950    1.000
    C18      C        0.24750    0.51700    0.06800    1.000
    C19      C        0.27950    0.66030    0.11740    1.000
    C20      C        0.57800    0.22110    0.89880    1.000
    C21      C        0.17770    0.69180    0.18090    1.000
    C22      C        0.05020    0.57890    0.19800    1.000
    C23      C        0.01370    0.43710    0.14600    1.000
    C24      C        0.00900    0.67370    0.38260    1.000
    C25      C        0.12570    0.65150    0.45200    1.000
    C26      C        0.17540    0.71890    0.56990    1.000
    C27      C        0.11040    0.80920    0.61820    1.000
    C28      C        0.17040    0.89050    0.74270    1.000
    C29      C        0.99370    0.83050    0.54830    1.000
    C30      C        0.94070    0.76190    0.43070    1.000
    N1       N        0.18210    0.22510    0.64030    1.000
    N2       N        0.81790    0.77490    0.35970    1.000
    O1       O        0.54370    0.75730    0.10990    1.000
    O2       O        0.88180    0.01760    0.21770    1.000
    O3       O        0.81700    0.77350    0.01690    1.000
    O4       O        0.94610    0.15940    0.01610    1.000
    O5       O        0.41920    0.89970    0.07770    1.000
    O6       O        0.05060    0.39220    0.73460    1.000
    O7       O        0.72440    0.12970    0.19210    1.000
    O8       O        0.45630    0.24270    0.89010    1.000
    O9       O        0.11820    0.98240    0.78230    1.000
    O10      O        0.18300    0.22650    0.98310    1.000
    O11      O        0.05390    0.84060    0.98390    1.000
    O12      O        0.58080    0.10030    0.92230    1.000
    O13      O        0.94940    0.60780    0.26540    1.000
    O14      O        0.27560    0.87030    0.80790    1.000
