# CIF file generated by openbabel 3.1.0, see https://openbabel.org
data_I
_chemical_name_common 'image0'
_cell_length_a 12.3348
_cell_length_b 9.936
_cell_length_c 17.8259
_cell_angle_alpha 90
_cell_angle_beta 90
_cell_angle_gamma 90
_space_group_name_H-M_alt 'P 1'
_space_group_name_Hall 'P 1'
loop_
    _symmetry_equiv_pos_as_xyz
    x,y,z
loop_
    _atom_site_label
    _atom_site_type_symbol
    _atom_site_fract_x
    _atom_site_fract_y
    _atom_site_fract_z
    _atom_site_occupancy
    O1       O        0.35450    0.44860    0.91722    1.000
    O2       O        0.27960    0.26000    0.87700    1.000
    N1       N        0.52880    0.04890    0.16870    1.000
    N2       N        0.47200    0.95520    0.20860    1.000
    N3       N        0.63300    0.99520    0.26230    1.000
    C1       C        0.33850    0.32180    0.92200    1.000
    C2       C        0.39360    0.24810    0.98460    1.000
    C3       C        0.47550    0.30640    0.02480    1.000
    H1       H        0.50090    0.39120    0.01130    1.000
    C4       C        0.52070    0.24060    0.08550    1.000
    H2       H        0.57650    0.28030    0.11270    1.000
    C5       C        0.48210    0.11490    0.10510    1.000
    C6       C        0.40110    0.05460    0.06580    1.000
    H3       H        0.37570    0.96980    0.07920    1.000
    C7       C        0.35750    0.12310    0.00530    1.000
    H4       H        0.30200    0.08310    0.97790    1.000
    C8       C        0.53710    0.92760    0.26400    1.000
    H5       H        0.51940    0.86670    0.30170    1.000
    C9       C        0.62410    0.06960    0.20090    1.000
    H6       H        0.67710    0.12790    0.18300    1.000
    O3       O        0.14550    0.55140    0.91722    1.000
    O4       O        0.22040    0.74000    0.87700    1.000
    N4       N        0.97120    0.95110    0.16870    1.000
    N5       N        0.02800    0.04480    0.20860    1.000
    N6       N        0.86700    0.00480    0.26230    1.000
    C10      C        0.16150    0.67820    0.92200    1.000
    C11      C        0.10640    0.75190    0.98460    1.000
    C12      C        0.02450    0.69360    0.02480    1.000
    H7       H        0.99910    0.60880    0.01130    1.000
    C13      C        0.97930    0.75940    0.08550    1.000
    H8       H        0.92350    0.71970    0.11270    1.000
    C14      C        0.01790    0.88510    0.10510    1.000
    C15      C        0.09890    0.94540    0.06580    1.000
    H9       H        0.12430    0.03020    0.07920    1.000
    C16      C        0.14250    0.87690    0.00530    1.000
    H10      H        0.19800    0.91690    0.97790    1.000
    C17      C        0.96290    0.07240    0.26400    1.000
    H11      H        0.98060    0.13330    0.30170    1.000
    C18      C        0.87590    0.93040    0.20090    1.000
    H12      H        0.82290    0.87210    0.18300    1.000
    O5       O        0.85450    0.05140    0.41722    1.000
    O6       O        0.77960    0.24000    0.37700    1.000
    N7       N        0.02880    0.45110    0.66870    1.000
    N8       N        0.97200    0.54480    0.70860    1.000
    N9       N        0.13300    0.50480    0.76230    1.000
    C19      C        0.83850    0.17820    0.42200    1.000
    C20      C        0.89360    0.25190    0.48460    1.000
    C21      C        0.97550    0.19360    0.52480    1.000
    H13      H        0.00090    0.10880    0.51130    1.000
    C22      C        0.02070    0.25940    0.58550    1.000
    H14      H        0.07650    0.21970    0.61270    1.000
    C23      C        0.98210    0.38510    0.60510    1.000
    C24      C        0.90110    0.44540    0.56580    1.000
    H15      H        0.87570    0.53020    0.57920    1.000
    C25      C        0.85750    0.37690    0.50530    1.000
    H16      H        0.80200    0.41690    0.47790    1.000
    C26      C        0.03710    0.57240    0.76400    1.000
    H17      H        0.01940    0.63330    0.80170    1.000
    C27      C        0.12410    0.43040    0.70090    1.000
    H18      H        0.17710    0.37210    0.68300    1.000
    O7       O        0.64550    0.94860    0.41722    1.000
    O8       O        0.72040    0.76000    0.37700    1.000
    N10      N        0.47120    0.54890    0.66870    1.000
    N11      N        0.52800    0.45520    0.70860    1.000
    N12      N        0.36700    0.49520    0.76230    1.000
    C28      C        0.66150    0.82180    0.42200    1.000
    C29      C        0.60640    0.74810    0.48460    1.000
    C30      C        0.52450    0.80640    0.52480    1.000
    H19      H        0.49910    0.89120    0.51130    1.000
    C31      C        0.47930    0.74060    0.58550    1.000
    H20      H        0.42350    0.78030    0.61270    1.000
    C32      C        0.51790    0.61490    0.60510    1.000
    C33      C        0.59890    0.55460    0.56580    1.000
    H21      H        0.62430    0.46980    0.57920    1.000
    C34      C        0.64250    0.62310    0.50530    1.000
    H22      H        0.69800    0.58310    0.47790    1.000
    C35      C        0.46290    0.42760    0.76400    1.000
    H23      H        0.48060    0.36670    0.80170    1.000
    C36      C        0.37590    0.56960    0.70090    1.000
    H24      H        0.32290    0.62790    0.68300    1.000
    Cu1      Cu       0.25000    0.50000    0.83816    1.000
    Cu2      Cu       0.75000    0.00000    0.33816    1.000
    O9       O        0.14550    0.94860    0.58278    1.000
    O10      O        0.22040    0.76000    0.62300    1.000
    N13      N        0.97120    0.54890    0.33130    1.000
    N14      N        0.02800    0.45520    0.29140    1.000
    N15      N        0.86700    0.49520    0.23770    1.000
    C37      C        0.16150    0.82180    0.57800    1.000
    C38      C        0.10640    0.74810    0.51540    1.000
    C39      C        0.02450    0.80640    0.47520    1.000
    H25      H        0.99910    0.89120    0.48870    1.000
    C40      C        0.97930    0.74060    0.41450    1.000
    H26      H        0.92350    0.78030    0.38730    1.000
    C41      C        0.01790    0.61490    0.39490    1.000
    C42      C        0.09890    0.55460    0.43420    1.000
    H27      H        0.12430    0.46980    0.42080    1.000
    C43      C        0.14250    0.62310    0.49470    1.000
    H28      H        0.19800    0.58310    0.52210    1.000
    C44      C        0.96290    0.42760    0.23600    1.000
    H29      H        0.98060    0.36670    0.19830    1.000
    C45      C        0.87590    0.56960    0.29910    1.000
    H30      H        0.82290    0.62790    0.31700    1.000
    O11      O        0.35450    0.05140    0.58278    1.000
    O12      O        0.27960    0.24000    0.62300    1.000
    N16      N        0.52880    0.45110    0.33130    1.000
    N17      N        0.47200    0.54480    0.29140    1.000
    N18      N        0.63300    0.50480    0.23770    1.000
    C46      C        0.33850    0.17820    0.57800    1.000
    C47      C        0.39360    0.25190    0.51540    1.000
    C48      C        0.47550    0.19360    0.47520    1.000
    H31      H        0.50090    0.10880    0.48870    1.000
    C49      C        0.52070    0.25940    0.41450    1.000
    H32      H        0.57650    0.21970    0.38730    1.000
    C50      C        0.48210    0.38510    0.39490    1.000
    C51      C        0.40110    0.44540    0.43420    1.000
    H33      H        0.37570    0.53020    0.42080    1.000
    C52      C        0.35750    0.37690    0.49470    1.000
    H34      H        0.30200    0.41690    0.52210    1.000
    C53      C        0.53710    0.57240    0.23600    1.000
    H35      H        0.51940    0.63330    0.19830    1.000
    C54      C        0.62410    0.43040    0.29910    1.000
    H36      H        0.67710    0.37210    0.31700    1.000
    O13      O        0.64550    0.55140    0.08278    1.000
    O14      O        0.72040    0.74000    0.12300    1.000
    N19      N        0.47120    0.95110    0.83130    1.000
    N20      N        0.52800    0.04480    0.79140    1.000
    N21      N        0.36700    0.00480    0.73770    1.000
    C55      C        0.66150    0.67820    0.07800    1.000
    C56      C        0.60640    0.75190    0.01540    1.000
    C57      C        0.52450    0.69360    0.97520    1.000
    H37      H        0.49910    0.60880    0.98870    1.000
    C58      C        0.47930    0.75940    0.91450    1.000
    H38      H        0.42350    0.71970    0.88730    1.000
    C59      C        0.51790    0.88510    0.89490    1.000
    C60      C        0.59890    0.94540    0.93420    1.000
    H39      H        0.62430    0.03020    0.92080    1.000
    C61      C        0.64250    0.87690    0.99470    1.000
    H40      H        0.69800    0.91690    0.02210    1.000
    C62      C        0.46290    0.07240    0.73600    1.000
    H41      H        0.48060    0.13330    0.69830    1.000
    C63      C        0.37590    0.93040    0.79910    1.000
    H42      H        0.32290    0.87210    0.81700    1.000
    O15      O        0.85450    0.44860    0.08278    1.000
    O16      O        0.77960    0.26000    0.12300    1.000
    N22      N        0.02880    0.04890    0.83130    1.000
    N23      N        0.97200    0.95520    0.79140    1.000
    N24      N        0.13300    0.99520    0.73770    1.000
    C64      C        0.83850    0.32180    0.07800    1.000
    C65      C        0.89360    0.24810    0.01540    1.000
    C66      C        0.97550    0.30640    0.97520    1.000
    H43      H        0.00090    0.39120    0.98870    1.000
    C67      C        0.02070    0.24060    0.91450    1.000
    H44      H        0.07650    0.28030    0.88730    1.000
    C68      C        0.98210    0.11490    0.89490    1.000
    C69      C        0.90110    0.05460    0.93420    1.000
    H45      H        0.87570    0.96980    0.92080    1.000
    C70      C        0.85750    0.12310    0.99470    1.000
    H46      H        0.80200    0.08310    0.02210    1.000
    C71      C        0.03710    0.92760    0.73600    1.000
    H47      H        0.01940    0.86670    0.69830    1.000
    C72      C        0.12410    0.06960    0.79910    1.000
    H48      H        0.17710    0.12790    0.81700    1.000
    Cu3      Cu       0.25000    0.00000    0.66184    1.000
    Cu4      Cu       0.75000    0.50000    0.16184    1.000
