# CIF file generated by openbabel 3.1.0, see https://openbabel.org
data_I
_chemical_name_common 'image0'
_cell_length_a 8.861
_cell_length_b 9.352
_cell_length_c 10.124
_cell_angle_alpha 64.106
_cell_angle_beta 75.004
_cell_angle_gamma 75.389
_space_group_name_H-M_alt 'P 1'
_space_group_name_Hall 'P 1'
loop_
    _symmetry_equiv_pos_as_xyz
    x,y,z
loop_
    _atom_site_label
    _atom_site_type_symbol
    _atom_site_fract_x
    _atom_site_fract_y
    _atom_site_fract_z
    _atom_site_occupancy
    Gd1      Gd       0.33139    0.36576    0.84394    1.000
    O1       O        0.08410    0.29820    0.02530    1.000
    O2       O        0.32790    0.08060    0.91710    1.000
    O3       O        0.52710    0.30850    0.64380    1.000
    O4       O        0.52540    0.52900    0.81130    1.000
    O5       O        0.43470    0.82010    0.03920    1.000
    O6       O        0.85910    0.39560    0.14460    1.000
    O7       O        0.66120    0.60870    0.92300    1.000
    O8       O        0.65920    0.40320    0.40710    1.000
    C1       C        0.98260    0.41120    0.04940    1.000
    C2       C        0.43210    0.97040    0.98760    1.000
    C3       C        0.55350    0.41680    0.51480    1.000
    C4       C        0.55350    0.54040    0.92440    1.000
    Gd2      Gd       0.66861    0.63424    0.15606    1.000
    O9       O        0.91590    0.70180    0.97470    1.000
    O10      O        0.67210    0.91940    0.08290    1.000
    O11      O        0.47290    0.69150    0.35620    1.000
    O12      O        0.47460    0.47100    0.18870    1.000
    O13      O        0.56530    0.17990    0.96080    1.000
    O14      O        0.14090    0.60440    0.85540    1.000
    O15      O        0.33880    0.39130    0.07700    1.000
    O16      O        0.34080    0.59680    0.59290    1.000
    C5       C        0.01740    0.58880    0.95060    1.000
    C6       C        0.56790    0.02960    0.01240    1.000
    C7       C        0.44650    0.58320    0.48520    1.000
    C8       C        0.44650    0.45960    0.07560    1.000
