# CIF file generated by openbabel 3.1.0, see https://openbabel.org
data_I
_chemical_name_common 'JENKIX'
_cell_length_a 45.9222
_cell_length_b 15.0763
_cell_length_c 34.6215
_cell_angle_alpha 90
_cell_angle_beta 117.31
_cell_angle_gamma 90
_space_group_name_H-M_alt 'P 1'
_space_group_name_Hall 'P 1'
loop_
    _symmetry_equiv_pos_as_xyz
    x,y,z
loop_
    _atom_site_label
    _atom_site_type_symbol
    _atom_site_fract_x
    _atom_site_fract_y
    _atom_site_fract_z
    _atom_site_occupancy
    Zn1      Zn       0.20720    0.61749    0.00819    1.000
    Zn2      Zn       0.72020    0.78598    0.35055    1.000
    Zn3      Zn       0.28583    0.19708    0.39469    1.000
    Zn4      Zn       0.26878    0.75012    0.05050    1.000
    O5       O        0.21990    0.73367    0.99892    1.000
    C6       C        0.38530    0.04010    0.25848    1.000
    C7       C        0.36780    0.97440    0.26757    1.000
    H8       H        0.34480    0.98020    0.25650    1.000
    C9       C        0.38349    0.90120    0.29242    1.000
    C10      C        0.41744    0.89380    0.30817    1.000
    H11      H        0.42840    0.84310    0.32480    1.000
    O12      O        0.68438    0.76485    0.39886    1.000
    O13      O        0.67912    0.83985    0.34059    1.000
    C14      C        0.36812    0.11610    0.23004    1.000
    C15      C        0.38294    0.19940    0.23702    1.000
    H16      H        0.40410    0.20800    0.26080    1.000
    C17      C        0.36701    0.27030    0.20943    1.000
    H18      H        0.37750    0.32640    0.21460    1.000
    C19      C        0.33604    0.26000    0.17446    1.000
    C20      C        0.32115    0.17630    0.16691    1.000
    H21      H        0.30010    0.16770    0.14310    1.000
    C22      C        0.33714    0.10610    0.19418    1.000
    H23      H        0.32690    0.04960    0.18850    1.000
    C24      C        0.31818    0.33740    0.14731    1.000
    C25      C        0.33439    0.40480    0.13735    1.000
    H26      H        0.35730    0.40050    0.14680    1.000
    C27      C        0.31721    0.47830    0.11369    1.000
    H28      H        0.32850    0.52450    0.10740    1.000
    C29      C        0.28360    0.48490    0.09907    1.000
    C30      C        0.26730    0.41790    0.10892    1.000
    H31      H        0.24440    0.42230    0.09940    1.000
    C32      C        0.28453    0.34460    0.13260    1.000
    H33      H        0.27320    0.29870    0.13890    1.000
    C34      C        0.26486    0.56330    0.07382    1.000
    O35      O        0.27890    0.61585    0.05956    1.000
    O36      O        0.23546    0.57245    0.06738    1.000
    C37      C        0.36503    0.82870    0.30136    1.000
    C38      C        0.33324    0.80650    0.27075    1.000
    H39      H        0.32230    0.84140    0.24530    1.000
    C40      C        0.31740    0.73280    0.27748    1.000
    H41      H        0.29580    0.71840    0.25620    1.000
    C42      C        0.33248    0.68100    0.31418    1.000
    C43      C        0.36395    0.70610    0.34563    1.000
    H44      H        0.37460    0.67280    0.37180    1.000
    C45      C        0.37970    0.77880    0.33899    1.000
    H46      H        0.40100    0.79460    0.36080    1.000
    C47      C        0.31684    0.59980    0.32109    1.000
    C48      C        0.28302    0.59070    0.30179    1.000
    H49      H        0.26950    0.63680    0.28380    1.000
    C50      C        0.26866    0.51480    0.30851    1.000
    H51      H        0.24550    0.50990    0.29560    1.000
    C52      C        0.28838    0.44590    0.33433    1.000
    C53      C        0.32199    0.45460    0.35275    1.000
    H54      H        0.33560    0.40770    0.37000    1.000
    C55      C        0.33613    0.53000    0.34651    1.000
    H56      H        0.35930    0.53480    0.35960    1.000
    C57      C        0.27362    0.36380    0.34260    1.000
    O58      O        0.24272    0.36281    0.32727    1.000
    O59      O        0.29320    0.30471    0.36543    1.000
    C60      C        0.47161    0.94540    0.31516    1.000
    C61      C        0.48936    0.88280    0.34427    1.000
    H62      H        0.47930    0.84950    0.35820    1.000
    C63      C        0.52173    0.86540    0.35463    1.000
    H64      H        0.53310    0.82000    0.37500    1.000
    C65      C        0.53779    0.91230    0.33610    1.000
    C66      C        0.52150    0.98140    0.31177    1.000
    H67      H        0.53250    0.02040    0.30130    1.000
    C68      C        0.48875    0.99840    0.30105    1.000
    H69      H        0.47820    0.04830    0.28350    1.000
    C70      C        0.57213    0.88970    0.34491    1.000
    C71      C        0.59394    0.85060    0.38316    1.000
    H72      H        0.58730    0.83900    0.40490    1.000
    C73      C        0.62508    0.82800    0.39080    1.000
    H74      H        0.63960    0.80100    0.41760    1.000
    C75      C        0.63555    0.84430    0.35962    1.000
    C76      C        0.61427    0.88650    0.32171    1.000
    H77      H        0.62130    0.90070    0.30060    1.000
    C78      C        0.58279    0.90830    0.31414    1.000
    H79      H        0.56830    0.93640    0.28760    1.000
    C80      C        0.66898    0.81510    0.36750    1.000
    C81      C        0.43553    0.95840    0.30014    1.000
    C82      C        0.41923    0.03150    0.27583    1.000
    H83      H        0.43140    0.07690    0.27080    1.000
    O84      O        0.75515    0.76289    0.40990    1.000
    C85      C        0.36407    0.93140    0.86010    1.000
    C86      C        0.34406    0.98400    0.87095    1.000
    H87      H        0.32120    0.97220    0.85810    1.000
    C88      C        0.35686    0.05340    0.90015    1.000
    C89      C        0.39044    0.06890    0.91977    1.000
    H90      H        0.39950    0.11410    0.94110    1.000
    C91      C        0.41109    0.01880    0.90857    1.000
    C92      C        0.39722    0.95060    0.87846    1.000
    H93      H        0.41090    0.91640    0.87030    1.000
    C94      C        0.35003    0.85420    0.83018    1.000
    C95      C        0.36772    0.77540    0.83800    1.000
    H96      H        0.38910    0.77170    0.86190    1.000
    C97      C        0.35462    0.70290    0.81155    1.000
    H98      H        0.36710    0.64980    0.81740    1.000
    C99      C        0.32327    0.70570    0.77619    1.000
    C100     C        0.30629    0.78550    0.76804    1.000
    H101     H        0.28530    0.79000    0.74370    1.000
    C102     C        0.31931    0.85790    0.79459    1.000
    H103     H        0.30700    0.91140    0.78840    1.000
    C104     C        0.30872    0.62590    0.74904    1.000
    C105     C        0.32845    0.56160    0.74371    1.000
    H106     H        0.35150    0.57000    0.75700    1.000
    C107     C        0.31528    0.48670    0.71969    1.000
    H108     H        0.32920    0.44360    0.71670    1.000
    C109     C        0.28150    0.47320    0.69949    1.000
    C110     C        0.26160    0.53630    0.70431    1.000
    H111     H        0.23850    0.52770    0.69070    1.000
    C112     C        0.27490    0.61190    0.72878    1.000
    H113     H        0.26090    0.65470    0.73180    1.000
    C114     C        0.26741    0.39220    0.67265    1.000
    O115     O        0.28752    0.33450    0.67289    1.000
    O116     O        0.23690    0.38601    0.65294    1.000
    C117     C        0.33484    0.11420    0.90868    1.000
    C118     C        0.31204    0.16340    0.87383    1.000
    H119     H        0.30940    0.15330    0.84530    1.000
    C120     C        0.29340    0.22670    0.88093    1.000
    H121     H        0.27820    0.26060    0.85710    1.000
    C122     C        0.29629    0.24210    0.92217    1.000
    C123     C        0.31805    0.18920    0.95616    1.000
    H124     H        0.31970    0.19600    0.98440    1.000
    C125     C        0.33724    0.12710    0.94935    1.000
    H126     H        0.35230    0.09280    0.97310    1.000
    C127     C        0.27737    0.31470    0.92929    1.000
    C128     C        0.26470    0.30670    0.95900    1.000
    H129     H        0.26700    0.25230    0.97400    1.000
    C130     C        0.24877    0.37750    0.96657    1.000
    H131     H        0.24010    0.37130    0.98660    1.000
    C132     C        0.24545    0.45700    0.94524    1.000
    C133     C        0.25729    0.46460    0.91509    1.000
    H134     H        0.25460    0.51860    0.89970    1.000
    C135     C        0.27293    0.39380    0.90731    1.000
    H136     H        0.28080    0.39980    0.88640    1.000
    C137     C        0.23099    0.53560    0.95619    1.000
    O138     O        0.21380    0.52156    0.97551    1.000
    O139     O        0.23744    0.60997    0.94663    1.000
    C140     C        0.44662    0.03940    0.92746    1.000
    C141     C        0.45901    0.12290    0.94184    1.000
    H142     H        0.44440    0.16960    0.93970    1.000
    C143     C        0.49228    0.14040    0.95930    1.000
    H144     H        0.50010    0.19860    0.96930    1.000
    C145     C        0.51431    0.07520    0.96257    1.000
    C146     C        0.50207    0.99030    0.94884    1.000
    H147     H        0.51680    0.94390    0.95120    1.000
    C148     C        0.46901    0.97200    0.93179    1.000
    H149     H        0.46140    0.91330    0.92300    1.000
    C150     C        0.55005    0.09300    0.98058    1.000
    C151     C        0.56650    0.15090    0.01446    1.000
    H152     H        0.55460    0.18280    0.02630    1.000
    C153     C        0.60020    0.16390    0.03171    1.000
    H154     H        0.61120    0.20270    0.05570    1.000
    C155     C        0.61748    0.11990    0.01373    1.000
    C156     C        0.60134    0.06100    0.97981    1.000
    H157     H        0.61320    0.03060    0.96750    1.000
    C158     C        0.56799    0.04600    0.96356    1.000
    H159     H        0.55730    0.00390    0.94100    1.000
    C160     C        0.65317    0.13450    0.02963    1.000
    O161     O        0.66934    0.16852    0.06643    1.000
    O162     O        0.66411    0.10976    0.00390    1.000
    H163     H        0.25515    0.67078    0.90990    1.000
    H164     H        0.21990    0.20000    0.49892    1.000
    Zn165    Zn       0.70720    0.11749    0.00819    1.000
    Zn166    Zn       0.22020    0.28598    0.35055    1.000
    Zn167    Zn       0.78583    0.69708    0.39469    1.000
    Zn168    Zn       0.76878    0.25012    0.05050    1.000
    O169     O        0.71990    0.23367    0.99892    1.000
    C170     C        0.88530    0.54010    0.25848    1.000
    C171     C        0.86780    0.47440    0.26757    1.000
    H172     H        0.84480    0.48020    0.25650    1.000
    C173     C        0.88349    0.40120    0.29242    1.000
    C174     C        0.91744    0.39380    0.30817    1.000
    H175     H        0.92840    0.34310    0.32480    1.000
    O176     O        0.18438    0.26485    0.39886    1.000
    O177     O        0.17912    0.33985    0.34059    1.000
    C178     C        0.86812    0.61610    0.23004    1.000
    C179     C        0.88294    0.69940    0.23702    1.000
    H180     H        0.90410    0.70800    0.26080    1.000
    C181     C        0.86701    0.77030    0.20943    1.000
    H182     H        0.87750    0.82640    0.21460    1.000
    C183     C        0.83604    0.76000    0.17446    1.000
    C184     C        0.82115    0.67630    0.16691    1.000
    H185     H        0.80010    0.66770    0.14310    1.000
    C186     C        0.83714    0.60610    0.19418    1.000
    H187     H        0.82690    0.54960    0.18850    1.000
    C188     C        0.81818    0.83740    0.14731    1.000
    C189     C        0.83439    0.90480    0.13735    1.000
    H190     H        0.85730    0.90050    0.14680    1.000
    C191     C        0.81721    0.97830    0.11369    1.000
    H192     H        0.82850    0.02450    0.10740    1.000
    C193     C        0.78360    0.98490    0.09907    1.000
    C194     C        0.76730    0.91790    0.10892    1.000
    H195     H        0.74440    0.92230    0.09940    1.000
    C196     C        0.78453    0.84460    0.13260    1.000
    H197     H        0.77320    0.79870    0.13890    1.000
    C198     C        0.76486    0.06330    0.07382    1.000
    O199     O        0.77890    0.11585    0.05956    1.000
    O200     O        0.73546    0.07245    0.06738    1.000
    C201     C        0.86503    0.32870    0.30136    1.000
    C202     C        0.83324    0.30650    0.27075    1.000
    H203     H        0.82230    0.34140    0.24530    1.000
    C204     C        0.81740    0.23280    0.27748    1.000
    H205     H        0.79580    0.21840    0.25620    1.000
    C206     C        0.83248    0.18100    0.31418    1.000
    C207     C        0.86395    0.20610    0.34563    1.000
    H208     H        0.87460    0.17280    0.37180    1.000
    C209     C        0.87970    0.27880    0.33899    1.000
    H210     H        0.90100    0.29460    0.36080    1.000
    C211     C        0.81684    0.09980    0.32109    1.000
    C212     C        0.78302    0.09070    0.30179    1.000
    H213     H        0.76950    0.13680    0.28380    1.000
    C214     C        0.76866    0.01480    0.30851    1.000
    H215     H        0.74550    0.00990    0.29560    1.000
    C216     C        0.78838    0.94590    0.33433    1.000
    C217     C        0.82199    0.95460    0.35275    1.000
    H218     H        0.83560    0.90770    0.37000    1.000
    C219     C        0.83613    0.03000    0.34651    1.000
    H220     H        0.85930    0.03480    0.35960    1.000
    C221     C        0.77362    0.86380    0.34260    1.000
    O222     O        0.74272    0.86281    0.32727    1.000
    O223     O        0.79320    0.80471    0.36543    1.000
    C224     C        0.97161    0.44540    0.31516    1.000
    C225     C        0.98936    0.38280    0.34427    1.000
    H226     H        0.97930    0.34950    0.35820    1.000
    C227     C        0.02173    0.36540    0.35463    1.000
    H228     H        0.03310    0.32000    0.37500    1.000
    C229     C        0.03779    0.41230    0.33610    1.000
    C230     C        0.02150    0.48140    0.31177    1.000
    H231     H        0.03250    0.52040    0.30130    1.000
    C232     C        0.98875    0.49840    0.30105    1.000
    H233     H        0.97820    0.54830    0.28350    1.000
    C234     C        0.07213    0.38970    0.34491    1.000
    C235     C        0.09394    0.35060    0.38316    1.000
    H236     H        0.08730    0.33900    0.40490    1.000
    C237     C        0.12508    0.32800    0.39080    1.000
    H238     H        0.13960    0.30100    0.41760    1.000
    C239     C        0.13555    0.34430    0.35962    1.000
    C240     C        0.11427    0.38650    0.32171    1.000
    H241     H        0.12130    0.40070    0.30060    1.000
    C242     C        0.08279    0.40830    0.31414    1.000
    H243     H        0.06830    0.43640    0.28760    1.000
    C244     C        0.16898    0.31510    0.36750    1.000
    C245     C        0.93553    0.45840    0.30014    1.000
    C246     C        0.91923    0.53150    0.27583    1.000
    H247     H        0.93140    0.57690    0.27080    1.000
    O248     O        0.25515    0.26289    0.40990    1.000
    C249     C        0.86407    0.43140    0.86010    1.000
    C250     C        0.84406    0.48400    0.87095    1.000
    H251     H        0.82120    0.47220    0.85810    1.000
    C252     C        0.85686    0.55340    0.90015    1.000
    C253     C        0.89044    0.56890    0.91977    1.000
    H254     H        0.89950    0.61410    0.94110    1.000
    C255     C        0.91109    0.51880    0.90857    1.000
    C256     C        0.89722    0.45060    0.87846    1.000
    H257     H        0.91090    0.41640    0.87030    1.000
    C258     C        0.85003    0.35420    0.83018    1.000
    C259     C        0.86772    0.27540    0.83800    1.000
    H260     H        0.88910    0.27170    0.86190    1.000
    C261     C        0.85462    0.20290    0.81155    1.000
    H262     H        0.86710    0.14980    0.81740    1.000
    C263     C        0.82327    0.20570    0.77619    1.000
    C264     C        0.80629    0.28550    0.76804    1.000
    H265     H        0.78530    0.29000    0.74370    1.000
    C266     C        0.81931    0.35790    0.79459    1.000
    H267     H        0.80700    0.41140    0.78840    1.000
    C268     C        0.80872    0.12590    0.74904    1.000
    C269     C        0.82845    0.06160    0.74371    1.000
    H270     H        0.85150    0.07000    0.75700    1.000
    C271     C        0.81528    0.98670    0.71969    1.000
    H272     H        0.82920    0.94360    0.71670    1.000
    C273     C        0.78150    0.97320    0.69949    1.000
    C274     C        0.76160    0.03630    0.70431    1.000
    H275     H        0.73850    0.02770    0.69070    1.000
    C276     C        0.77490    0.11190    0.72878    1.000
    H277     H        0.76090    0.15470    0.73180    1.000
    C278     C        0.76741    0.89220    0.67265    1.000
    O279     O        0.78752    0.83450    0.67289    1.000
    O280     O        0.73690    0.88601    0.65294    1.000
    C281     C        0.83484    0.61420    0.90868    1.000
    C282     C        0.81204    0.66340    0.87383    1.000
    H283     H        0.80940    0.65330    0.84530    1.000
    C284     C        0.79340    0.72670    0.88093    1.000
    H285     H        0.77820    0.76060    0.85710    1.000
    C286     C        0.79629    0.74210    0.92217    1.000
    C287     C        0.81805    0.68920    0.95616    1.000
    H288     H        0.81970    0.69600    0.98440    1.000
    C289     C        0.83724    0.62710    0.94935    1.000
    H290     H        0.85230    0.59280    0.97310    1.000
    C291     C        0.77737    0.81470    0.92929    1.000
    C292     C        0.76470    0.80670    0.95900    1.000
    H293     H        0.76700    0.75230    0.97400    1.000
    C294     C        0.74877    0.87750    0.96657    1.000
    H295     H        0.74010    0.87130    0.98660    1.000
    C296     C        0.74545    0.95700    0.94524    1.000
    C297     C        0.75729    0.96460    0.91509    1.000
    H298     H        0.75460    0.01860    0.89970    1.000
    C299     C        0.77293    0.89380    0.90731    1.000
    H300     H        0.78080    0.89980    0.88640    1.000
    C301     C        0.73099    0.03560    0.95619    1.000
    O302     O        0.71380    0.02156    0.97551    1.000
    O303     O        0.73744    0.10997    0.94663    1.000
    C304     C        0.94662    0.53940    0.92746    1.000
    C305     C        0.95901    0.62290    0.94184    1.000
    H306     H        0.94440    0.66960    0.93970    1.000
    C307     C        0.99228    0.64040    0.95930    1.000
    H308     H        0.00010    0.69860    0.96930    1.000
    C309     C        0.01431    0.57520    0.96257    1.000
    C310     C        0.00207    0.49030    0.94884    1.000
    H311     H        0.01680    0.44390    0.95120    1.000
    C312     C        0.96901    0.47200    0.93179    1.000
    H313     H        0.96140    0.41330    0.92300    1.000
    C314     C        0.05005    0.59300    0.98058    1.000
    C315     C        0.06650    0.65090    0.01446    1.000
    H316     H        0.05460    0.68280    0.02630    1.000
    C317     C        0.10020    0.66390    0.03171    1.000
    H318     H        0.11120    0.70270    0.05570    1.000
    C319     C        0.11748    0.61990    0.01373    1.000
    C320     C        0.10134    0.56100    0.97981    1.000
    H321     H        0.11320    0.53060    0.96750    1.000
    C322     C        0.06799    0.54600    0.96356    1.000
    H323     H        0.05730    0.50390    0.94100    1.000
    C324     C        0.15317    0.63450    0.02963    1.000
    O325     O        0.16934    0.66852    0.06643    1.000
    O326     O        0.16411    0.60976    0.00390    1.000
    H327     H        0.75515    0.17078    0.90990    1.000
    H328     H        0.71990    0.70000    0.49892    1.000
    Zn329    Zn       0.79280    0.61749    0.49181    1.000
    Zn330    Zn       0.27980    0.78598    0.14945    1.000
    Zn331    Zn       0.71417    0.19708    0.10531    1.000
    Zn332    Zn       0.73122    0.75012    0.44950    1.000
    O333     O        0.78010    0.73367    0.50108    1.000
    C334     C        0.61470    0.04010    0.24152    1.000
    C335     C        0.63220    0.97440    0.23243    1.000
    H336     H        0.65520    0.98020    0.24350    1.000
    C337     C        0.61651    0.90120    0.20758    1.000
    C338     C        0.58256    0.89380    0.19183    1.000
    H339     H        0.57160    0.84310    0.17520    1.000
    O340     O        0.31562    0.76485    0.10114    1.000
    O341     O        0.32088    0.83985    0.15941    1.000
    C342     C        0.63188    0.11610    0.26996    1.000
    C343     C        0.61706    0.19940    0.26298    1.000
    H344     H        0.59590    0.20800    0.23920    1.000
    C345     C        0.63299    0.27030    0.29057    1.000
    H346     H        0.62250    0.32640    0.28540    1.000
    C347     C        0.66396    0.26000    0.32554    1.000
    C348     C        0.67885    0.17630    0.33309    1.000
    H349     H        0.69990    0.16770    0.35690    1.000
    C350     C        0.66286    0.10610    0.30582    1.000
    H351     H        0.67310    0.04960    0.31150    1.000
    C352     C        0.68182    0.33740    0.35269    1.000
    C353     C        0.66561    0.40480    0.36265    1.000
    H354     H        0.64270    0.40050    0.35320    1.000
    C355     C        0.68279    0.47830    0.38631    1.000
    H356     H        0.67150    0.52450    0.39260    1.000
    C357     C        0.71640    0.48490    0.40093    1.000
    C358     C        0.73270    0.41790    0.39108    1.000
    H359     H        0.75560    0.42230    0.40060    1.000
    C360     C        0.71547    0.34460    0.36740    1.000
    H361     H        0.72680    0.29870    0.36110    1.000
    C362     C        0.73514    0.56330    0.42618    1.000
    O363     O        0.72110    0.61585    0.44044    1.000
    O364     O        0.76454    0.57245    0.43262    1.000
    C365     C        0.63497    0.82870    0.19864    1.000
    C366     C        0.66676    0.80650    0.22925    1.000
    H367     H        0.67770    0.84140    0.25470    1.000
    C368     C        0.68260    0.73280    0.22252    1.000
    H369     H        0.70420    0.71840    0.24380    1.000
    C370     C        0.66752    0.68100    0.18582    1.000
    C371     C        0.63605    0.70610    0.15437    1.000
    H372     H        0.62540    0.67280    0.12820    1.000
    C373     C        0.62030    0.77880    0.16101    1.000
    H374     H        0.59900    0.79460    0.13920    1.000
    C375     C        0.68316    0.59980    0.17891    1.000
    C376     C        0.71698    0.59070    0.19821    1.000
    H377     H        0.73050    0.63680    0.21620    1.000
    C378     C        0.73134    0.51480    0.19149    1.000
    H379     H        0.75450    0.50990    0.20440    1.000
    C380     C        0.71162    0.44590    0.16567    1.000
    C381     C        0.67801    0.45460    0.14725    1.000
    H382     H        0.66440    0.40770    0.13000    1.000
    C383     C        0.66387    0.53000    0.15349    1.000
    H384     H        0.64070    0.53480    0.14040    1.000
    C385     C        0.72638    0.36380    0.15740    1.000
    O386     O        0.75728    0.36281    0.17273    1.000
    O387     O        0.70680    0.30471    0.13457    1.000
    C388     C        0.52839    0.94540    0.18484    1.000
    C389     C        0.51064    0.88280    0.15573    1.000
    H390     H        0.52070    0.84950    0.14180    1.000
    C391     C        0.47827    0.86540    0.14537    1.000
    H392     H        0.46690    0.82000    0.12500    1.000
    C393     C        0.46221    0.91230    0.16390    1.000
    C394     C        0.47850    0.98140    0.18823    1.000
    H395     H        0.46750    0.02040    0.19870    1.000
    C396     C        0.51125    0.99840    0.19895    1.000
    H397     H        0.52180    0.04830    0.21650    1.000
    C398     C        0.42787    0.88970    0.15509    1.000
    C399     C        0.40606    0.85060    0.11684    1.000
    H400     H        0.41270    0.83900    0.09510    1.000
    C401     C        0.37492    0.82800    0.10920    1.000
    H402     H        0.36040    0.80100    0.08240    1.000
    C403     C        0.36445    0.84430    0.14038    1.000
    C404     C        0.38573    0.88650    0.17829    1.000
    H405     H        0.37870    0.90070    0.19940    1.000
    C406     C        0.41721    0.90830    0.18586    1.000
    H407     H        0.43170    0.93640    0.21240    1.000
    C408     C        0.33102    0.81510    0.13250    1.000
    C409     C        0.56447    0.95840    0.19986    1.000
    C410     C        0.58077    0.03150    0.22417    1.000
    H411     H        0.56860    0.07690    0.22920    1.000
    O412     O        0.24485    0.76289    0.09010    1.000
    C413     C        0.63593    0.93140    0.63990    1.000
    C414     C        0.65594    0.98400    0.62905    1.000
    H415     H        0.67880    0.97220    0.64190    1.000
    C416     C        0.64314    0.05340    0.59985    1.000
    C417     C        0.60956    0.06890    0.58023    1.000
    H418     H        0.60050    0.11410    0.55890    1.000
    C419     C        0.58891    0.01880    0.59143    1.000
    C420     C        0.60278    0.95060    0.62154    1.000
    H421     H        0.58910    0.91640    0.62970    1.000
    C422     C        0.64997    0.85420    0.66982    1.000
    C423     C        0.63228    0.77540    0.66200    1.000
    H424     H        0.61090    0.77170    0.63810    1.000
    C425     C        0.64538    0.70290    0.68845    1.000
    H426     H        0.63290    0.64980    0.68260    1.000
    C427     C        0.67673    0.70570    0.72381    1.000
    C428     C        0.69371    0.78550    0.73196    1.000
    H429     H        0.71470    0.79000    0.75630    1.000
    C430     C        0.68069    0.85790    0.70541    1.000
    H431     H        0.69300    0.91140    0.71160    1.000
    C432     C        0.69128    0.62590    0.75096    1.000
    C433     C        0.67155    0.56160    0.75629    1.000
    H434     H        0.64850    0.57000    0.74300    1.000
    C435     C        0.68472    0.48670    0.78031    1.000
    H436     H        0.67080    0.44360    0.78330    1.000
    C437     C        0.71850    0.47320    0.80051    1.000
    C438     C        0.73840    0.53630    0.79569    1.000
    H439     H        0.76150    0.52770    0.80930    1.000
    C440     C        0.72510    0.61190    0.77122    1.000
    H441     H        0.73910    0.65470    0.76820    1.000
    C442     C        0.73259    0.39220    0.82735    1.000
    O443     O        0.71248    0.33450    0.82711    1.000
    O444     O        0.76310    0.38601    0.84706    1.000
    C445     C        0.66516    0.11420    0.59132    1.000
    C446     C        0.68796    0.16340    0.62617    1.000
    H447     H        0.69060    0.15330    0.65470    1.000
    C448     C        0.70660    0.22670    0.61907    1.000
    H449     H        0.72180    0.26060    0.64290    1.000
    C450     C        0.70371    0.24210    0.57783    1.000
    C451     C        0.68195    0.18920    0.54384    1.000
    H452     H        0.68030    0.19600    0.51560    1.000
    C453     C        0.66276    0.12710    0.55065    1.000
    H454     H        0.64770    0.09280    0.52690    1.000
    C455     C        0.72263    0.31470    0.57071    1.000
    C456     C        0.73530    0.30670    0.54100    1.000
    H457     H        0.73300    0.25230    0.52600    1.000
    C458     C        0.75123    0.37750    0.53343    1.000
    H459     H        0.75990    0.37130    0.51340    1.000
    C460     C        0.75455    0.45700    0.55476    1.000
    C461     C        0.74271    0.46460    0.58491    1.000
    H462     H        0.74540    0.51860    0.60030    1.000
    C463     C        0.72707    0.39380    0.59269    1.000
    H464     H        0.71920    0.39980    0.61360    1.000
    C465     C        0.76901    0.53560    0.54381    1.000
    O466     O        0.78620    0.52156    0.52449    1.000
    O467     O        0.76256    0.60997    0.55337    1.000
    C468     C        0.55338    0.03940    0.57254    1.000
    C469     C        0.54099    0.12290    0.55816    1.000
    H470     H        0.55560    0.16960    0.56030    1.000
    C471     C        0.50772    0.14040    0.54070    1.000
    H472     H        0.49990    0.19860    0.53070    1.000
    C473     C        0.48569    0.07520    0.53743    1.000
    C474     C        0.49793    0.99030    0.55116    1.000
    H475     H        0.48320    0.94390    0.54880    1.000
    C476     C        0.53099    0.97200    0.56821    1.000
    H477     H        0.53860    0.91330    0.57700    1.000
    C478     C        0.44995    0.09300    0.51942    1.000
    C479     C        0.43350    0.15090    0.48554    1.000
    H480     H        0.44540    0.18280    0.47370    1.000
    C481     C        0.39980    0.16390    0.46829    1.000
    H482     H        0.38880    0.20270    0.44430    1.000
    C483     C        0.38252    0.11990    0.48627    1.000
    C484     C        0.39866    0.06100    0.52019    1.000
    H485     H        0.38680    0.03060    0.53250    1.000
    C486     C        0.43201    0.04600    0.53644    1.000
    H487     H        0.44270    0.00390    0.55900    1.000
    C488     C        0.34683    0.13450    0.47037    1.000
    O489     O        0.33066    0.16852    0.43357    1.000
    O490     O        0.33589    0.10976    0.49610    1.000
    H491     H        0.74485    0.67078    0.59010    1.000
    H492     H        0.78010    0.20000    0.00108    1.000
    Zn493    Zn       0.29280    0.11749    0.49181    1.000
    Zn494    Zn       0.77980    0.28598    0.14945    1.000
    Zn495    Zn       0.21417    0.69708    0.10531    1.000
    Zn496    Zn       0.23122    0.25012    0.44950    1.000
    O497     O        0.28010    0.23367    0.50108    1.000
    C498     C        0.11470    0.54010    0.24152    1.000
    C499     C        0.13220    0.47440    0.23243    1.000
    H500     H        0.15520    0.48020    0.24350    1.000
    C501     C        0.11651    0.40120    0.20758    1.000
    C502     C        0.08256    0.39380    0.19183    1.000
    H503     H        0.07160    0.34310    0.17520    1.000
    O504     O        0.81562    0.26485    0.10114    1.000
    O505     O        0.82088    0.33985    0.15941    1.000
    C506     C        0.13188    0.61610    0.26996    1.000
    C507     C        0.11706    0.69940    0.26298    1.000
    H508     H        0.09590    0.70800    0.23920    1.000
    C509     C        0.13299    0.77030    0.29057    1.000
    H510     H        0.12250    0.82640    0.28540    1.000
    C511     C        0.16396    0.76000    0.32554    1.000
    C512     C        0.17885    0.67630    0.33309    1.000
    H513     H        0.19990    0.66770    0.35690    1.000
    C514     C        0.16286    0.60610    0.30582    1.000
    H515     H        0.17310    0.54960    0.31150    1.000
    C516     C        0.18182    0.83740    0.35269    1.000
    C517     C        0.16561    0.90480    0.36265    1.000
    H518     H        0.14270    0.90050    0.35320    1.000
    C519     C        0.18279    0.97830    0.38631    1.000
    H520     H        0.17150    0.02450    0.39260    1.000
    C521     C        0.21640    0.98490    0.40093    1.000
    C522     C        0.23270    0.91790    0.39108    1.000
    H523     H        0.25560    0.92230    0.40060    1.000
    C524     C        0.21547    0.84460    0.36740    1.000
    H525     H        0.22680    0.79870    0.36110    1.000
    C526     C        0.23514    0.06330    0.42618    1.000
    O527     O        0.22110    0.11585    0.44044    1.000
    O528     O        0.26454    0.07245    0.43262    1.000
    C529     C        0.13497    0.32870    0.19864    1.000
    C530     C        0.16676    0.30650    0.22925    1.000
    H531     H        0.17770    0.34140    0.25470    1.000
    C532     C        0.18260    0.23280    0.22252    1.000
    H533     H        0.20420    0.21840    0.24380    1.000
    C534     C        0.16752    0.18100    0.18582    1.000
    C535     C        0.13605    0.20610    0.15437    1.000
    H536     H        0.12540    0.17280    0.12820    1.000
    C537     C        0.12030    0.27880    0.16101    1.000
    H538     H        0.09900    0.29460    0.13920    1.000
    C539     C        0.18316    0.09980    0.17891    1.000
    C540     C        0.21698    0.09070    0.19821    1.000
    H541     H        0.23050    0.13680    0.21620    1.000
    C542     C        0.23134    0.01480    0.19149    1.000
    H543     H        0.25450    0.00990    0.20440    1.000
    C544     C        0.21162    0.94590    0.16567    1.000
    C545     C        0.17801    0.95460    0.14725    1.000
    H546     H        0.16440    0.90770    0.13000    1.000
    C547     C        0.16387    0.03000    0.15349    1.000
    H548     H        0.14070    0.03480    0.14040    1.000
    C549     C        0.22638    0.86380    0.15740    1.000
    O550     O        0.25728    0.86281    0.17273    1.000
    O551     O        0.20680    0.80471    0.13457    1.000
    C552     C        0.02839    0.44540    0.18484    1.000
    C553     C        0.01064    0.38280    0.15573    1.000
    H554     H        0.02070    0.34950    0.14180    1.000
    C555     C        0.97827    0.36540    0.14537    1.000
    H556     H        0.96690    0.32000    0.12500    1.000
    C557     C        0.96221    0.41230    0.16390    1.000
    C558     C        0.97850    0.48140    0.18823    1.000
    H559     H        0.96750    0.52040    0.19870    1.000
    C560     C        0.01125    0.49840    0.19895    1.000
    H561     H        0.02180    0.54830    0.21650    1.000
    C562     C        0.92787    0.38970    0.15509    1.000
    C563     C        0.90606    0.35060    0.11684    1.000
    H564     H        0.91270    0.33900    0.09510    1.000
    C565     C        0.87492    0.32800    0.10920    1.000
    H566     H        0.86040    0.30100    0.08240    1.000
    C567     C        0.86445    0.34430    0.14038    1.000
    C568     C        0.88573    0.38650    0.17829    1.000
    H569     H        0.87870    0.40070    0.19940    1.000
    C570     C        0.91721    0.40830    0.18586    1.000
    H571     H        0.93170    0.43640    0.21240    1.000
    C572     C        0.83102    0.31510    0.13250    1.000
    C573     C        0.06447    0.45840    0.19986    1.000
    C574     C        0.08077    0.53150    0.22417    1.000
    H575     H        0.06860    0.57690    0.22920    1.000
    O576     O        0.74485    0.26289    0.09010    1.000
    C577     C        0.13593    0.43140    0.63990    1.000
    C578     C        0.15594    0.48400    0.62905    1.000
    H579     H        0.17880    0.47220    0.64190    1.000
    C580     C        0.14314    0.55340    0.59985    1.000
    C581     C        0.10956    0.56890    0.58023    1.000
    H582     H        0.10050    0.61410    0.55890    1.000
    C583     C        0.08891    0.51880    0.59143    1.000
    C584     C        0.10278    0.45060    0.62154    1.000
    H585     H        0.08910    0.41640    0.62970    1.000
    C586     C        0.14997    0.35420    0.66982    1.000
    C587     C        0.13228    0.27540    0.66200    1.000
    H588     H        0.11090    0.27170    0.63810    1.000
    C589     C        0.14538    0.20290    0.68845    1.000
    H590     H        0.13290    0.14980    0.68260    1.000
    C591     C        0.17673    0.20570    0.72381    1.000
    C592     C        0.19371    0.28550    0.73196    1.000
    H593     H        0.21470    0.29000    0.75630    1.000
    C594     C        0.18069    0.35790    0.70541    1.000
    H595     H        0.19300    0.41140    0.71160    1.000
    C596     C        0.19128    0.12590    0.75096    1.000
    C597     C        0.17155    0.06160    0.75629    1.000
    H598     H        0.14850    0.07000    0.74300    1.000
    C599     C        0.18472    0.98670    0.78031    1.000
    H600     H        0.17080    0.94360    0.78330    1.000
    C601     C        0.21850    0.97320    0.80051    1.000
    C602     C        0.23840    0.03630    0.79569    1.000
    H603     H        0.26150    0.02770    0.80930    1.000
    C604     C        0.22510    0.11190    0.77122    1.000
    H605     H        0.23910    0.15470    0.76820    1.000
    C606     C        0.23259    0.89220    0.82735    1.000
    O607     O        0.21248    0.83450    0.82711    1.000
    O608     O        0.26310    0.88601    0.84706    1.000
    C609     C        0.16516    0.61420    0.59132    1.000
    C610     C        0.18796    0.66340    0.62617    1.000
    H611     H        0.19060    0.65330    0.65470    1.000
    C612     C        0.20660    0.72670    0.61907    1.000
    H613     H        0.22180    0.76060    0.64290    1.000
    C614     C        0.20371    0.74210    0.57783    1.000
    C615     C        0.18195    0.68920    0.54384    1.000
    H616     H        0.18030    0.69600    0.51560    1.000
    C617     C        0.16276    0.62710    0.55065    1.000
    H618     H        0.14770    0.59280    0.52690    1.000
    C619     C        0.22263    0.81470    0.57071    1.000
    C620     C        0.23530    0.80670    0.54100    1.000
    H621     H        0.23300    0.75230    0.52600    1.000
    C622     C        0.25123    0.87750    0.53343    1.000
    H623     H        0.25990    0.87130    0.51340    1.000
    C624     C        0.25455    0.95700    0.55476    1.000
    C625     C        0.24271    0.96460    0.58491    1.000
    H626     H        0.24540    0.01860    0.60030    1.000
    C627     C        0.22707    0.89380    0.59269    1.000
    H628     H        0.21920    0.89980    0.61360    1.000
    C629     C        0.26901    0.03560    0.54381    1.000
    O630     O        0.28620    0.02156    0.52449    1.000
    O631     O        0.26256    0.10997    0.55337    1.000
    C632     C        0.05338    0.53940    0.57254    1.000
    C633     C        0.04099    0.62290    0.55816    1.000
    H634     H        0.05560    0.66960    0.56030    1.000
    C635     C        0.00772    0.64040    0.54070    1.000
    H636     H        0.99990    0.69860    0.53070    1.000
    C637     C        0.98569    0.57520    0.53743    1.000
    C638     C        0.99793    0.49030    0.55116    1.000
    H639     H        0.98320    0.44390    0.54880    1.000
    C640     C        0.03099    0.47200    0.56821    1.000
    H641     H        0.03860    0.41330    0.57700    1.000
    C642     C        0.94995    0.59300    0.51942    1.000
    C643     C        0.93350    0.65090    0.48554    1.000
    H644     H        0.94540    0.68280    0.47370    1.000
    C645     C        0.89980    0.66390    0.46829    1.000
    H646     H        0.88880    0.70270    0.44430    1.000
    C647     C        0.88252    0.61990    0.48627    1.000
    C648     C        0.89866    0.56100    0.52019    1.000
    H649     H        0.88680    0.53060    0.53250    1.000
    C650     C        0.93201    0.54600    0.53644    1.000
    H651     H        0.94270    0.50390    0.55900    1.000
    C652     C        0.84683    0.63450    0.47037    1.000
    O653     O        0.83066    0.66852    0.43357    1.000
    O654     O        0.83589    0.60976    0.49610    1.000
    H655     H        0.24485    0.17078    0.59010    1.000
    H656     H        0.28010    0.70000    0.00108    1.000
    Zn657    Zn       0.79280    0.38251    0.99181    1.000
    Zn658    Zn       0.27980    0.21402    0.64945    1.000
    Zn659    Zn       0.71417    0.80292    0.60531    1.000
    Zn660    Zn       0.73122    0.24988    0.94950    1.000
    O661     O        0.78010    0.26633    0.00108    1.000
    C662     C        0.61470    0.95990    0.74152    1.000
    C663     C        0.63220    0.02560    0.73243    1.000
    H664     H        0.65520    0.01980    0.74350    1.000
    C665     C        0.61651    0.09880    0.70758    1.000
    C666     C        0.58256    0.10620    0.69183    1.000
    H667     H        0.57160    0.15690    0.67520    1.000
    O668     O        0.31562    0.23515    0.60114    1.000
    O669     O        0.32088    0.16015    0.65941    1.000
    C670     C        0.63188    0.88390    0.76996    1.000
    C671     C        0.61706    0.80060    0.76298    1.000
    H672     H        0.59590    0.79200    0.73920    1.000
    C673     C        0.63299    0.72970    0.79057    1.000
    H674     H        0.62250    0.67360    0.78540    1.000
    C675     C        0.66396    0.74000    0.82554    1.000
    C676     C        0.67885    0.82370    0.83309    1.000
    H677     H        0.69990    0.83230    0.85690    1.000
    C678     C        0.66286    0.89390    0.80582    1.000
    H679     H        0.67310    0.95040    0.81150    1.000
    C680     C        0.68182    0.66260    0.85269    1.000
    C681     C        0.66561    0.59520    0.86265    1.000
    H682     H        0.64270    0.59950    0.85320    1.000
    C683     C        0.68279    0.52170    0.88631    1.000
    H684     H        0.67150    0.47550    0.89260    1.000
    C685     C        0.71640    0.51510    0.90093    1.000
    C686     C        0.73270    0.58210    0.89108    1.000
    H687     H        0.75560    0.57770    0.90060    1.000
    C688     C        0.71547    0.65540    0.86740    1.000
    H689     H        0.72680    0.70130    0.86110    1.000
    C690     C        0.73514    0.43670    0.92618    1.000
    O691     O        0.72110    0.38415    0.94044    1.000
    O692     O        0.76454    0.42755    0.93262    1.000
    C693     C        0.63497    0.17130    0.69864    1.000
    C694     C        0.66676    0.19350    0.72925    1.000
    H695     H        0.67770    0.15860    0.75470    1.000
    C696     C        0.68260    0.26720    0.72252    1.000
    H697     H        0.70420    0.28160    0.74380    1.000
    C698     C        0.66752    0.31900    0.68582    1.000
    C699     C        0.63605    0.29390    0.65437    1.000
    H700     H        0.62540    0.32720    0.62820    1.000
    C701     C        0.62030    0.22120    0.66101    1.000
    H702     H        0.59900    0.20540    0.63920    1.000
    C703     C        0.68316    0.40020    0.67891    1.000
    C704     C        0.71698    0.40930    0.69821    1.000
    H705     H        0.73050    0.36320    0.71620    1.000
    C706     C        0.73134    0.48520    0.69149    1.000
    H707     H        0.75450    0.49010    0.70440    1.000
    C708     C        0.71162    0.55410    0.66567    1.000
    C709     C        0.67801    0.54540    0.64725    1.000
    H710     H        0.66440    0.59230    0.63000    1.000
    C711     C        0.66387    0.47000    0.65349    1.000
    H712     H        0.64070    0.46520    0.64040    1.000
    C713     C        0.72638    0.63620    0.65740    1.000
    O714     O        0.75728    0.63719    0.67273    1.000
    O715     O        0.70680    0.69529    0.63457    1.000
    C716     C        0.52839    0.05460    0.68484    1.000
    C717     C        0.51064    0.11720    0.65573    1.000
    H718     H        0.52070    0.15050    0.64180    1.000
    C719     C        0.47827    0.13460    0.64537    1.000
    H720     H        0.46690    0.18000    0.62500    1.000
    C721     C        0.46221    0.08770    0.66390    1.000
    C722     C        0.47850    0.01860    0.68823    1.000
    H723     H        0.46750    0.97960    0.69870    1.000
    C724     C        0.51125    0.00160    0.69895    1.000
    H725     H        0.52180    0.95170    0.71650    1.000
    C726     C        0.42787    0.11030    0.65509    1.000
    C727     C        0.40606    0.14940    0.61684    1.000
    H728     H        0.41270    0.16100    0.59510    1.000
    C729     C        0.37492    0.17200    0.60920    1.000
    H730     H        0.36040    0.19900    0.58240    1.000
    C731     C        0.36445    0.15570    0.64038    1.000
    C732     C        0.38573    0.11350    0.67829    1.000
    H733     H        0.37870    0.09930    0.69940    1.000
    C734     C        0.41721    0.09170    0.68586    1.000
    H735     H        0.43170    0.06360    0.71240    1.000
    C736     C        0.33102    0.18490    0.63250    1.000
    C737     C        0.56447    0.04160    0.69986    1.000
    C738     C        0.58077    0.96850    0.72417    1.000
    H739     H        0.56860    0.92310    0.72920    1.000
    O740     O        0.24485    0.23711    0.59010    1.000
    C741     C        0.63593    0.06860    0.13990    1.000
    C742     C        0.65594    0.01600    0.12905    1.000
    H743     H        0.67880    0.02780    0.14190    1.000
    C744     C        0.64314    0.94660    0.09985    1.000
    C745     C        0.60956    0.93110    0.08023    1.000
    H746     H        0.60050    0.88590    0.05890    1.000
    C747     C        0.58891    0.98120    0.09143    1.000
    C748     C        0.60278    0.04940    0.12154    1.000
    H749     H        0.58910    0.08360    0.12970    1.000
    C750     C        0.64997    0.14580    0.16982    1.000
    C751     C        0.63228    0.22460    0.16200    1.000
    H752     H        0.61090    0.22830    0.13810    1.000
    C753     C        0.64538    0.29710    0.18845    1.000
    H754     H        0.63290    0.35020    0.18260    1.000
    C755     C        0.67673    0.29430    0.22381    1.000
    C756     C        0.69371    0.21450    0.23196    1.000
    H757     H        0.71470    0.21000    0.25630    1.000
    C758     C        0.68069    0.14210    0.20541    1.000
    H759     H        0.69300    0.08860    0.21160    1.000
    C760     C        0.69128    0.37410    0.25096    1.000
    C761     C        0.67155    0.43840    0.25629    1.000
    H762     H        0.64850    0.43000    0.24300    1.000
    C763     C        0.68472    0.51330    0.28031    1.000
    H764     H        0.67080    0.55640    0.28330    1.000
    C765     C        0.71850    0.52680    0.30051    1.000
    C766     C        0.73840    0.46370    0.29569    1.000
    H767     H        0.76150    0.47230    0.30930    1.000
    C768     C        0.72510    0.38810    0.27122    1.000
    H769     H        0.73910    0.34530    0.26820    1.000
    C770     C        0.73259    0.60780    0.32735    1.000
    O771     O        0.71248    0.66550    0.32711    1.000
    O772     O        0.76310    0.61399    0.34706    1.000
    C773     C        0.66516    0.88580    0.09132    1.000
    C774     C        0.68796    0.83660    0.12617    1.000
    H775     H        0.69060    0.84670    0.15470    1.000
    C776     C        0.70660    0.77330    0.11907    1.000
    H777     H        0.72180    0.73940    0.14290    1.000
    C778     C        0.70371    0.75790    0.07783    1.000
    C779     C        0.68195    0.81080    0.04384    1.000
    H780     H        0.68030    0.80400    0.01560    1.000
    C781     C        0.66276    0.87290    0.05065    1.000
    H782     H        0.64770    0.90720    0.02690    1.000
    C783     C        0.72263    0.68530    0.07071    1.000
    C784     C        0.73530    0.69330    0.04100    1.000
    H785     H        0.73300    0.74770    0.02600    1.000
    C786     C        0.75123    0.62250    0.03343    1.000
    H787     H        0.75990    0.62870    0.01340    1.000
    C788     C        0.75455    0.54300    0.05476    1.000
    C789     C        0.74271    0.53540    0.08491    1.000
    H790     H        0.74540    0.48140    0.10030    1.000
    C791     C        0.72707    0.60620    0.09269    1.000
    H792     H        0.71920    0.60020    0.11360    1.000
    C793     C        0.76901    0.46440    0.04381    1.000
    O794     O        0.78620    0.47844    0.02449    1.000
    O795     O        0.76256    0.39003    0.05337    1.000
    C796     C        0.55338    0.96060    0.07254    1.000
    C797     C        0.54099    0.87710    0.05816    1.000
    H798     H        0.55560    0.83040    0.06030    1.000
    C799     C        0.50772    0.85960    0.04070    1.000
    H800     H        0.49990    0.80140    0.03070    1.000
    C801     C        0.48569    0.92480    0.03743    1.000
    C802     C        0.49793    0.00970    0.05116    1.000
    H803     H        0.48320    0.05610    0.04880    1.000
    C804     C        0.53099    0.02800    0.06821    1.000
    H805     H        0.53860    0.08670    0.07700    1.000
    C806     C        0.44995    0.90700    0.01942    1.000
    C807     C        0.43350    0.84910    0.98554    1.000
    H808     H        0.44540    0.81720    0.97370    1.000
    C809     C        0.39980    0.83610    0.96829    1.000
    H810     H        0.38880    0.79730    0.94430    1.000
    C811     C        0.38252    0.88010    0.98627    1.000
    C812     C        0.39866    0.93900    0.02019    1.000
    H813     H        0.38680    0.96940    0.03250    1.000
    C814     C        0.43201    0.95400    0.03644    1.000
    H815     H        0.44270    0.99610    0.05900    1.000
    C816     C        0.34683    0.86550    0.97037    1.000
    O817     O        0.33066    0.83148    0.93357    1.000
    O818     O        0.33589    0.89024    0.99610    1.000
    H819     H        0.74485    0.32922    0.09010    1.000
    H820     H        0.78010    0.80000    0.50108    1.000
    Zn821    Zn       0.29280    0.88251    0.99181    1.000
    Zn822    Zn       0.77980    0.71402    0.64945    1.000
    Zn823    Zn       0.21417    0.30292    0.60531    1.000
    Zn824    Zn       0.23122    0.74988    0.94950    1.000
    O825     O        0.28010    0.76633    0.00108    1.000
    C826     C        0.11470    0.45990    0.74152    1.000
    C827     C        0.13220    0.52560    0.73243    1.000
    H828     H        0.15520    0.51980    0.74350    1.000
    C829     C        0.11651    0.59880    0.70758    1.000
    C830     C        0.08256    0.60620    0.69183    1.000
    H831     H        0.07160    0.65690    0.67520    1.000
    O832     O        0.81562    0.73515    0.60114    1.000
    O833     O        0.82088    0.66015    0.65941    1.000
    C834     C        0.13188    0.38390    0.76996    1.000
    C835     C        0.11706    0.30060    0.76298    1.000
    H836     H        0.09590    0.29200    0.73920    1.000
    C837     C        0.13299    0.22970    0.79057    1.000
    H838     H        0.12250    0.17360    0.78540    1.000
    C839     C        0.16396    0.24000    0.82554    1.000
    C840     C        0.17885    0.32370    0.83309    1.000
    H841     H        0.19990    0.33230    0.85690    1.000
    C842     C        0.16286    0.39390    0.80582    1.000
    H843     H        0.17310    0.45040    0.81150    1.000
    C844     C        0.18182    0.16260    0.85269    1.000
    C845     C        0.16561    0.09520    0.86265    1.000
    H846     H        0.14270    0.09950    0.85320    1.000
    C847     C        0.18279    0.02170    0.88631    1.000
    H848     H        0.17150    0.97550    0.89260    1.000
    C849     C        0.21640    0.01510    0.90093    1.000
    C850     C        0.23270    0.08210    0.89108    1.000
    H851     H        0.25560    0.07770    0.90060    1.000
    C852     C        0.21547    0.15540    0.86740    1.000
    H853     H        0.22680    0.20130    0.86110    1.000
    C854     C        0.23514    0.93670    0.92618    1.000
    O855     O        0.22110    0.88415    0.94044    1.000
    O856     O        0.26454    0.92755    0.93262    1.000
    C857     C        0.13497    0.67130    0.69864    1.000
    C858     C        0.16676    0.69350    0.72925    1.000
    H859     H        0.17770    0.65860    0.75470    1.000
    C860     C        0.18260    0.76720    0.72252    1.000
    H861     H        0.20420    0.78160    0.74380    1.000
    C862     C        0.16752    0.81900    0.68582    1.000
    C863     C        0.13605    0.79390    0.65437    1.000
    H864     H        0.12540    0.82720    0.62820    1.000
    C865     C        0.12030    0.72120    0.66101    1.000
    H866     H        0.09900    0.70540    0.63920    1.000
    C867     C        0.18316    0.90020    0.67891    1.000
    C868     C        0.21698    0.90930    0.69821    1.000
    H869     H        0.23050    0.86320    0.71620    1.000
    C870     C        0.23134    0.98520    0.69149    1.000
    H871     H        0.25450    0.99010    0.70440    1.000
    C872     C        0.21162    0.05410    0.66567    1.000
    C873     C        0.17801    0.04540    0.64725    1.000
    H874     H        0.16440    0.09230    0.63000    1.000
    C875     C        0.16387    0.97000    0.65349    1.000
    H876     H        0.14070    0.96520    0.64040    1.000
    C877     C        0.22638    0.13620    0.65740    1.000
    O878     O        0.25728    0.13719    0.67273    1.000
    O879     O        0.20680    0.19529    0.63457    1.000
    C880     C        0.02839    0.55460    0.68484    1.000
    C881     C        0.01064    0.61720    0.65573    1.000
    H882     H        0.02070    0.65050    0.64180    1.000
    C883     C        0.97827    0.63460    0.64537    1.000
    H884     H        0.96690    0.68000    0.62500    1.000
    C885     C        0.96221    0.58770    0.66390    1.000
    C886     C        0.97850    0.51860    0.68823    1.000
    H887     H        0.96750    0.47960    0.69870    1.000
    C888     C        0.01125    0.50160    0.69895    1.000
    H889     H        0.02180    0.45170    0.71650    1.000
    C890     C        0.92787    0.61030    0.65509    1.000
    C891     C        0.90606    0.64940    0.61684    1.000
    H892     H        0.91270    0.66100    0.59510    1.000
    C893     C        0.87492    0.67200    0.60920    1.000
    H894     H        0.86040    0.69900    0.58240    1.000
    C895     C        0.86445    0.65570    0.64038    1.000
    C896     C        0.88573    0.61350    0.67829    1.000
    H897     H        0.87870    0.59930    0.69940    1.000
    C898     C        0.91721    0.59170    0.68586    1.000
    H899     H        0.93170    0.56360    0.71240    1.000
    C900     C        0.83102    0.68490    0.63250    1.000
    C901     C        0.06447    0.54160    0.69986    1.000
    C902     C        0.08077    0.46850    0.72417    1.000
    H903     H        0.06860    0.42310    0.72920    1.000
    O904     O        0.74485    0.73711    0.59010    1.000
    C905     C        0.13593    0.56860    0.13990    1.000
    C906     C        0.15594    0.51600    0.12905    1.000
    H907     H        0.17880    0.52780    0.14190    1.000
    C908     C        0.14314    0.44660    0.09985    1.000
    C909     C        0.10956    0.43110    0.08023    1.000
    H910     H        0.10050    0.38590    0.05890    1.000
    C911     C        0.08891    0.48120    0.09143    1.000
    C912     C        0.10278    0.54940    0.12154    1.000
    H913     H        0.08910    0.58360    0.12970    1.000
    C914     C        0.14997    0.64580    0.16982    1.000
    C915     C        0.13228    0.72460    0.16200    1.000
    H916     H        0.11090    0.72830    0.13810    1.000
    C917     C        0.14538    0.79710    0.18845    1.000
    H918     H        0.13290    0.85020    0.18260    1.000
    C919     C        0.17673    0.79430    0.22381    1.000
    C920     C        0.19371    0.71450    0.23196    1.000
    H921     H        0.21470    0.71000    0.25630    1.000
    C922     C        0.18069    0.64210    0.20541    1.000
    H923     H        0.19300    0.58860    0.21160    1.000
    C924     C        0.19128    0.87410    0.25096    1.000
    C925     C        0.17155    0.93840    0.25629    1.000
    H926     H        0.14850    0.93000    0.24300    1.000
    C927     C        0.18472    0.01330    0.28031    1.000
    H928     H        0.17080    0.05640    0.28330    1.000
    C929     C        0.21850    0.02680    0.30051    1.000
    C930     C        0.23840    0.96370    0.29569    1.000
    H931     H        0.26150    0.97230    0.30930    1.000
    C932     C        0.22510    0.88810    0.27122    1.000
    H933     H        0.23910    0.84530    0.26820    1.000
    C934     C        0.23259    0.10780    0.32735    1.000
    O935     O        0.21248    0.16550    0.32711    1.000
    O936     O        0.26310    0.11399    0.34706    1.000
    C937     C        0.16516    0.38580    0.09132    1.000
    C938     C        0.18796    0.33660    0.12617    1.000
    H939     H        0.19060    0.34670    0.15470    1.000
    C940     C        0.20660    0.27330    0.11907    1.000
    H941     H        0.22180    0.23940    0.14290    1.000
    C942     C        0.20371    0.25790    0.07783    1.000
    C943     C        0.18195    0.31080    0.04384    1.000
    H944     H        0.18030    0.30400    0.01560    1.000
    C945     C        0.16276    0.37290    0.05065    1.000
    H946     H        0.14770    0.40720    0.02690    1.000
    C947     C        0.22263    0.18530    0.07071    1.000
    C948     C        0.23530    0.19330    0.04100    1.000
    H949     H        0.23300    0.24770    0.02600    1.000
    C950     C        0.25123    0.12250    0.03343    1.000
    H951     H        0.25990    0.12870    0.01340    1.000
    C952     C        0.25455    0.04300    0.05476    1.000
    C953     C        0.24271    0.03540    0.08491    1.000
    H954     H        0.24540    0.98140    0.10030    1.000
    C955     C        0.22707    0.10620    0.09269    1.000
    H956     H        0.21920    0.10020    0.11360    1.000
    C957     C        0.26901    0.96440    0.04381    1.000
    O958     O        0.28620    0.97844    0.02449    1.000
    O959     O        0.26256    0.89003    0.05337    1.000
    C960     C        0.05338    0.46060    0.07254    1.000
    C961     C        0.04099    0.37710    0.05816    1.000
    H962     H        0.05560    0.33040    0.06030    1.000
    C963     C        0.00772    0.35960    0.04070    1.000
    H964     H        0.99990    0.30140    0.03070    1.000
    C965     C        0.98569    0.42480    0.03743    1.000
    C966     C        0.99793    0.50970    0.05116    1.000
    H967     H        0.98320    0.55610    0.04880    1.000
    C968     C        0.03099    0.52800    0.06821    1.000
    H969     H        0.03860    0.58670    0.07700    1.000
    C970     C        0.94995    0.40700    0.01942    1.000
    C971     C        0.93350    0.34910    0.98554    1.000
    H972     H        0.94540    0.31720    0.97370    1.000
    C973     C        0.89980    0.33610    0.96829    1.000
    H974     H        0.88880    0.29730    0.94430    1.000
    C975     C        0.88252    0.38010    0.98627    1.000
    C976     C        0.89866    0.43900    0.02019    1.000
    H977     H        0.88680    0.46940    0.03250    1.000
    C978     C        0.93201    0.45400    0.03644    1.000
    H979     H        0.94270    0.49610    0.05900    1.000
    C980     C        0.84683    0.36550    0.97037    1.000
    O981     O        0.83066    0.33148    0.93357    1.000
    O982     O        0.83589    0.39024    0.99610    1.000
    H983     H        0.24485    0.82922    0.09010    1.000
    H984     H        0.28010    0.30000    0.50108    1.000
    Zn985    Zn       0.20720    0.38251    0.50819    1.000
    Zn986    Zn       0.72020    0.21402    0.85055    1.000
    Zn987    Zn       0.28583    0.80292    0.89469    1.000
    Zn988    Zn       0.26878    0.24988    0.55050    1.000
    O989     O        0.21990    0.26633    0.49892    1.000
    C990     C        0.38530    0.95990    0.75848    1.000
    C991     C        0.36780    0.02560    0.76757    1.000
    H992     H        0.34480    0.01980    0.75650    1.000
    C993     C        0.38349    0.09880    0.79242    1.000
    C994     C        0.41744    0.10620    0.80817    1.000
    H995     H        0.42840    0.15690    0.82480    1.000
    O996     O        0.68438    0.23515    0.89886    1.000
    O997     O        0.67912    0.16015    0.84059    1.000
    C998     C        0.36812    0.88390    0.73004    1.000
    C999     C        0.38294    0.80060    0.73702    1.000
    H1000    H        0.40410    0.79200    0.76080    1.000
    C1001    C        0.36701    0.72970    0.70943    1.000
    H1002    H        0.37750    0.67360    0.71460    1.000
    C1003    C        0.33604    0.74000    0.67446    1.000
    C1004    C        0.32115    0.82370    0.66691    1.000
    H1005    H        0.30010    0.83230    0.64310    1.000
    C1006    C        0.33714    0.89390    0.69418    1.000
    H1007    H        0.32690    0.95040    0.68850    1.000
    C1008    C        0.31818    0.66260    0.64731    1.000
    C1009    C        0.33439    0.59520    0.63735    1.000
    H1010    H        0.35730    0.59950    0.64680    1.000
    C1011    C        0.31721    0.52170    0.61369    1.000
    H1012    H        0.32850    0.47550    0.60740    1.000
    C1013    C        0.28360    0.51510    0.59907    1.000
    C1014    C        0.26730    0.58210    0.60892    1.000
    H1015    H        0.24440    0.57770    0.59940    1.000
    C1016    C        0.28453    0.65540    0.63260    1.000
    H1017    H        0.27320    0.70130    0.63890    1.000
    C1018    C        0.26486    0.43670    0.57382    1.000
    O1019    O        0.27890    0.38415    0.55956    1.000
    O1020    O        0.23546    0.42755    0.56738    1.000
    C1021    C        0.36503    0.17130    0.80136    1.000
    C1022    C        0.33324    0.19350    0.77075    1.000
    H1023    H        0.32230    0.15860    0.74530    1.000
    C1024    C        0.31740    0.26720    0.77748    1.000
    H1025    H        0.29580    0.28160    0.75620    1.000
    C1026    C        0.33248    0.31900    0.81418    1.000
    C1027    C        0.36395    0.29390    0.84563    1.000
    H1028    H        0.37460    0.32720    0.87180    1.000
    C1029    C        0.37970    0.22120    0.83899    1.000
    H1030    H        0.40100    0.20540    0.86080    1.000
    C1031    C        0.31684    0.40020    0.82109    1.000
    C1032    C        0.28302    0.40930    0.80179    1.000
    H1033    H        0.26950    0.36320    0.78380    1.000
    C1034    C        0.26866    0.48520    0.80851    1.000
    H1035    H        0.24550    0.49010    0.79560    1.000
    C1036    C        0.28838    0.55410    0.83433    1.000
    C1037    C        0.32199    0.54540    0.85275    1.000
    H1038    H        0.33560    0.59230    0.87000    1.000
    C1039    C        0.33613    0.47000    0.84651    1.000
    H1040    H        0.35930    0.46520    0.85960    1.000
    C1041    C        0.27362    0.63620    0.84260    1.000
    O1042    O        0.24272    0.63719    0.82727    1.000
    O1043    O        0.29320    0.69529    0.86543    1.000
    C1044    C        0.47161    0.05460    0.81516    1.000
    C1045    C        0.48936    0.11720    0.84427    1.000
    H1046    H        0.47930    0.15050    0.85820    1.000
    C1047    C        0.52173    0.13460    0.85463    1.000
    H1048    H        0.53310    0.18000    0.87500    1.000
    C1049    C        0.53779    0.08770    0.83610    1.000
    C1050    C        0.52150    0.01860    0.81177    1.000
    H1051    H        0.53250    0.97960    0.80130    1.000
    C1052    C        0.48875    0.00160    0.80105    1.000
    H1053    H        0.47820    0.95170    0.78350    1.000
    C1054    C        0.57213    0.11030    0.84491    1.000
    C1055    C        0.59394    0.14940    0.88316    1.000
    H1056    H        0.58730    0.16100    0.90490    1.000
    C1057    C        0.62508    0.17200    0.89080    1.000
    H1058    H        0.63960    0.19900    0.91760    1.000
    C1059    C        0.63555    0.15570    0.85962    1.000
    C1060    C        0.61427    0.11350    0.82171    1.000
    H1061    H        0.62130    0.09930    0.80060    1.000
    C1062    C        0.58279    0.09170    0.81414    1.000
    H1063    H        0.56830    0.06360    0.78760    1.000
    C1064    C        0.66898    0.18490    0.86750    1.000
    C1065    C        0.43553    0.04160    0.80014    1.000
    C1066    C        0.41923    0.96850    0.77583    1.000
    H1067    H        0.43140    0.92310    0.77080    1.000
    O1068    O        0.75515    0.23711    0.90990    1.000
    C1069    C        0.36407    0.06860    0.36010    1.000
    C1070    C        0.34406    0.01600    0.37095    1.000
    H1071    H        0.32120    0.02780    0.35810    1.000
    C1072    C        0.35686    0.94660    0.40015    1.000
    C1073    C        0.39044    0.93110    0.41977    1.000
    H1074    H        0.39950    0.88590    0.44110    1.000
    C1075    C        0.41109    0.98120    0.40857    1.000
    C1076    C        0.39722    0.04940    0.37846    1.000
    H1077    H        0.41090    0.08360    0.37030    1.000
    C1078    C        0.35003    0.14580    0.33018    1.000
    C1079    C        0.36772    0.22460    0.33800    1.000
    H1080    H        0.38910    0.22830    0.36190    1.000
    C1081    C        0.35462    0.29710    0.31155    1.000
    H1082    H        0.36710    0.35020    0.31740    1.000
    C1083    C        0.32327    0.29430    0.27619    1.000
    C1084    C        0.30629    0.21450    0.26804    1.000
    H1085    H        0.28530    0.21000    0.24370    1.000
    C1086    C        0.31931    0.14210    0.29459    1.000
    H1087    H        0.30700    0.08860    0.28840    1.000
    C1088    C        0.30872    0.37410    0.24904    1.000
    C1089    C        0.32845    0.43840    0.24371    1.000
    H1090    H        0.35150    0.43000    0.25700    1.000
    C1091    C        0.31528    0.51330    0.21969    1.000
    H1092    H        0.32920    0.55640    0.21670    1.000
    C1093    C        0.28150    0.52680    0.19949    1.000
    C1094    C        0.26160    0.46370    0.20431    1.000
    H1095    H        0.23850    0.47230    0.19070    1.000
    C1096    C        0.27490    0.38810    0.22878    1.000
    H1097    H        0.26090    0.34530    0.23180    1.000
    C1098    C        0.26741    0.60780    0.17265    1.000
    O1099    O        0.28752    0.66550    0.17289    1.000
    O1100    O        0.23690    0.61399    0.15294    1.000
    C1101    C        0.33484    0.88580    0.40868    1.000
    C1102    C        0.31204    0.83660    0.37383    1.000
    H1103    H        0.30940    0.84670    0.34530    1.000
    C1104    C        0.29340    0.77330    0.38093    1.000
    H1105    H        0.27820    0.73940    0.35710    1.000
    C1106    C        0.29629    0.75790    0.42217    1.000
    C1107    C        0.31805    0.81080    0.45616    1.000
    H1108    H        0.31970    0.80400    0.48440    1.000
    C1109    C        0.33724    0.87290    0.44935    1.000
    H1110    H        0.35230    0.90720    0.47310    1.000
    C1111    C        0.27737    0.68530    0.42929    1.000
    C1112    C        0.26470    0.69330    0.45900    1.000
    H1113    H        0.26700    0.74770    0.47400    1.000
    C1114    C        0.24877    0.62250    0.46657    1.000
    H1115    H        0.24010    0.62870    0.48660    1.000
    C1116    C        0.24545    0.54300    0.44524    1.000
    C1117    C        0.25729    0.53540    0.41509    1.000
    H1118    H        0.25460    0.48140    0.39970    1.000
    C1119    C        0.27293    0.60620    0.40731    1.000
    H1120    H        0.28080    0.60020    0.38640    1.000
    C1121    C        0.23099    0.46440    0.45619    1.000
    O1122    O        0.21380    0.47844    0.47551    1.000
    O1123    O        0.23744    0.39003    0.44663    1.000
    C1124    C        0.44662    0.96060    0.42746    1.000
    C1125    C        0.45901    0.87710    0.44184    1.000
    H1126    H        0.44440    0.83040    0.43970    1.000
    C1127    C        0.49228    0.85960    0.45930    1.000
    H1128    H        0.50010    0.80140    0.46930    1.000
    C1129    C        0.51431    0.92480    0.46257    1.000
    C1130    C        0.50207    0.00970    0.44884    1.000
    H1131    H        0.51680    0.05610    0.45120    1.000
    C1132    C        0.46901    0.02800    0.43179    1.000
    H1133    H        0.46140    0.08670    0.42300    1.000
    C1134    C        0.55005    0.90700    0.48058    1.000
    C1135    C        0.56650    0.84910    0.51446    1.000
    H1136    H        0.55460    0.81720    0.52630    1.000
    C1137    C        0.60020    0.83610    0.53171    1.000
    H1138    H        0.61120    0.79730    0.55570    1.000
    C1139    C        0.61748    0.88010    0.51373    1.000
    C1140    C        0.60134    0.93900    0.47981    1.000
    H1141    H        0.61320    0.96940    0.46750    1.000
    C1142    C        0.56799    0.95400    0.46356    1.000
    H1143    H        0.55730    0.99610    0.44100    1.000
    C1144    C        0.65317    0.86550    0.52963    1.000
    O1145    O        0.66934    0.83148    0.56643    1.000
    O1146    O        0.66411    0.89024    0.50390    1.000
    H1147    H        0.25515    0.32922    0.40990    1.000
    H1148    H        0.21990    0.80000    0.99892    1.000
    Zn1149   Zn       0.70720    0.88251    0.50819    1.000
    Zn1150   Zn       0.22020    0.71402    0.85055    1.000
    Zn1151   Zn       0.78583    0.30292    0.89469    1.000
    Zn1152   Zn       0.76878    0.74988    0.55050    1.000
    O1153    O        0.71990    0.76633    0.49892    1.000
    C1154    C        0.88530    0.45990    0.75848    1.000
    C1155    C        0.86780    0.52560    0.76757    1.000
    H1156    H        0.84480    0.51980    0.75650    1.000
    C1157    C        0.88349    0.59880    0.79242    1.000
    C1158    C        0.91744    0.60620    0.80817    1.000
    H1159    H        0.92840    0.65690    0.82480    1.000
    O1160    O        0.18438    0.73515    0.89886    1.000
    O1161    O        0.17912    0.66015    0.84059    1.000
    C1162    C        0.86812    0.38390    0.73004    1.000
    C1163    C        0.88294    0.30060    0.73702    1.000
    H1164    H        0.90410    0.29200    0.76080    1.000
    C1165    C        0.86701    0.22970    0.70943    1.000
    H1166    H        0.87750    0.17360    0.71460    1.000
    C1167    C        0.83604    0.24000    0.67446    1.000
    C1168    C        0.82115    0.32370    0.66691    1.000
    H1169    H        0.80010    0.33230    0.64310    1.000
    C1170    C        0.83714    0.39390    0.69418    1.000
    H1171    H        0.82690    0.45040    0.68850    1.000
    C1172    C        0.81818    0.16260    0.64731    1.000
    C1173    C        0.83439    0.09520    0.63735    1.000
    H1174    H        0.85730    0.09950    0.64680    1.000
    C1175    C        0.81721    0.02170    0.61369    1.000
    H1176    H        0.82850    0.97550    0.60740    1.000
    C1177    C        0.78360    0.01510    0.59907    1.000
    C1178    C        0.76730    0.08210    0.60892    1.000
    H1179    H        0.74440    0.07770    0.59940    1.000
    C1180    C        0.78453    0.15540    0.63260    1.000
    H1181    H        0.77320    0.20130    0.63890    1.000
    C1182    C        0.76486    0.93670    0.57382    1.000
    O1183    O        0.77890    0.88415    0.55956    1.000
    O1184    O        0.73546    0.92755    0.56738    1.000
    C1185    C        0.86503    0.67130    0.80136    1.000
    C1186    C        0.83324    0.69350    0.77075    1.000
    H1187    H        0.82230    0.65860    0.74530    1.000
    C1188    C        0.81740    0.76720    0.77748    1.000
    H1189    H        0.79580    0.78160    0.75620    1.000
    C1190    C        0.83248    0.81900    0.81418    1.000
    C1191    C        0.86395    0.79390    0.84563    1.000
    H1192    H        0.87460    0.82720    0.87180    1.000
    C1193    C        0.87970    0.72120    0.83899    1.000
    H1194    H        0.90100    0.70540    0.86080    1.000
    C1195    C        0.81684    0.90020    0.82109    1.000
    C1196    C        0.78302    0.90930    0.80179    1.000
    H1197    H        0.76950    0.86320    0.78380    1.000
    C1198    C        0.76866    0.98520    0.80851    1.000
    H1199    H        0.74550    0.99010    0.79560    1.000
    C1200    C        0.78838    0.05410    0.83433    1.000
    C1201    C        0.82199    0.04540    0.85275    1.000
    H1202    H        0.83560    0.09230    0.87000    1.000
    C1203    C        0.83613    0.97000    0.84651    1.000
    H1204    H        0.85930    0.96520    0.85960    1.000
    C1205    C        0.77362    0.13620    0.84260    1.000
    O1206    O        0.74272    0.13719    0.82727    1.000
    O1207    O        0.79320    0.19529    0.86543    1.000
    C1208    C        0.97161    0.55460    0.81516    1.000
    C1209    C        0.98936    0.61720    0.84427    1.000
    H1210    H        0.97930    0.65050    0.85820    1.000
    C1211    C        0.02173    0.63460    0.85463    1.000
    H1212    H        0.03310    0.68000    0.87500    1.000
    C1213    C        0.03779    0.58770    0.83610    1.000
    C1214    C        0.02150    0.51860    0.81177    1.000
    H1215    H        0.03250    0.47960    0.80130    1.000
    C1216    C        0.98875    0.50160    0.80105    1.000
    H1217    H        0.97820    0.45170    0.78350    1.000
    C1218    C        0.07213    0.61030    0.84491    1.000
    C1219    C        0.09394    0.64940    0.88316    1.000
    H1220    H        0.08730    0.66100    0.90490    1.000
    C1221    C        0.12508    0.67200    0.89080    1.000
    H1222    H        0.13960    0.69900    0.91760    1.000
    C1223    C        0.13555    0.65570    0.85962    1.000
    C1224    C        0.11427    0.61350    0.82171    1.000
    H1225    H        0.12130    0.59930    0.80060    1.000
    C1226    C        0.08279    0.59170    0.81414    1.000
    H1227    H        0.06830    0.56360    0.78760    1.000
    C1228    C        0.16898    0.68490    0.86750    1.000
    C1229    C        0.93553    0.54160    0.80014    1.000
    C1230    C        0.91923    0.46850    0.77583    1.000
    H1231    H        0.93140    0.42310    0.77080    1.000
    O1232    O        0.25515    0.73711    0.90990    1.000
    C1233    C        0.86407    0.56860    0.36010    1.000
    C1234    C        0.84406    0.51600    0.37095    1.000
    H1235    H        0.82120    0.52780    0.35810    1.000
    C1236    C        0.85686    0.44660    0.40015    1.000
    C1237    C        0.89044    0.43110    0.41977    1.000
    H1238    H        0.89950    0.38590    0.44110    1.000
    C1239    C        0.91109    0.48120    0.40857    1.000
    C1240    C        0.89722    0.54940    0.37846    1.000
    H1241    H        0.91090    0.58360    0.37030    1.000
    C1242    C        0.85003    0.64580    0.33018    1.000
    C1243    C        0.86772    0.72460    0.33800    1.000
    H1244    H        0.88910    0.72830    0.36190    1.000
    C1245    C        0.85462    0.79710    0.31155    1.000
    H1246    H        0.86710    0.85020    0.31740    1.000
    C1247    C        0.82327    0.79430    0.27619    1.000
    C1248    C        0.80629    0.71450    0.26804    1.000
    H1249    H        0.78530    0.71000    0.24370    1.000
    C1250    C        0.81931    0.64210    0.29459    1.000
    H1251    H        0.80700    0.58860    0.28840    1.000
    C1252    C        0.80872    0.87410    0.24904    1.000
    C1253    C        0.82845    0.93840    0.24371    1.000
    H1254    H        0.85150    0.93000    0.25700    1.000
    C1255    C        0.81528    0.01330    0.21969    1.000
    H1256    H        0.82920    0.05640    0.21670    1.000
    C1257    C        0.78150    0.02680    0.19949    1.000
    C1258    C        0.76160    0.96370    0.20431    1.000
    H1259    H        0.73850    0.97230    0.19070    1.000
    C1260    C        0.77490    0.88810    0.22878    1.000
    H1261    H        0.76090    0.84530    0.23180    1.000
    C1262    C        0.76741    0.10780    0.17265    1.000
    O1263    O        0.78752    0.16550    0.17289    1.000
    O1264    O        0.73690    0.11399    0.15294    1.000
    C1265    C        0.83484    0.38580    0.40868    1.000
    C1266    C        0.81204    0.33660    0.37383    1.000
    H1267    H        0.80940    0.34670    0.34530    1.000
    C1268    C        0.79340    0.27330    0.38093    1.000
    H1269    H        0.77820    0.23940    0.35710    1.000
    C1270    C        0.79629    0.25790    0.42217    1.000
    C1271    C        0.81805    0.31080    0.45616    1.000
    H1272    H        0.81970    0.30400    0.48440    1.000
    C1273    C        0.83724    0.37290    0.44935    1.000
    H1274    H        0.85230    0.40720    0.47310    1.000
    C1275    C        0.77737    0.18530    0.42929    1.000
    C1276    C        0.76470    0.19330    0.45900    1.000
    H1277    H        0.76700    0.24770    0.47400    1.000
    C1278    C        0.74877    0.12250    0.46657    1.000
    H1279    H        0.74010    0.12870    0.48660    1.000
    C1280    C        0.74545    0.04300    0.44524    1.000
    C1281    C        0.75729    0.03540    0.41509    1.000
    H1282    H        0.75460    0.98140    0.39970    1.000
    C1283    C        0.77293    0.10620    0.40731    1.000
    H1284    H        0.78080    0.10020    0.38640    1.000
    C1285    C        0.73099    0.96440    0.45619    1.000
    O1286    O        0.71380    0.97844    0.47551    1.000
    O1287    O        0.73744    0.89003    0.44663    1.000
    C1288    C        0.94662    0.46060    0.42746    1.000
    C1289    C        0.95901    0.37710    0.44184    1.000
    H1290    H        0.94440    0.33040    0.43970    1.000
    C1291    C        0.99228    0.35960    0.45930    1.000
    H1292    H        0.00010    0.30140    0.46930    1.000
    C1293    C        0.01431    0.42480    0.46257    1.000
    C1294    C        0.00207    0.50970    0.44884    1.000
    H1295    H        0.01680    0.55610    0.45120    1.000
    C1296    C        0.96901    0.52800    0.43179    1.000
    H1297    H        0.96140    0.58670    0.42300    1.000
    C1298    C        0.05005    0.40700    0.48058    1.000
    C1299    C        0.06650    0.34910    0.51446    1.000
    H1300    H        0.05460    0.31720    0.52630    1.000
    C1301    C        0.10020    0.33610    0.53171    1.000
    H1302    H        0.11120    0.29730    0.55570    1.000
    C1303    C        0.11748    0.38010    0.51373    1.000
    C1304    C        0.10134    0.43900    0.47981    1.000
    H1305    H        0.11320    0.46940    0.46750    1.000
    C1306    C        0.06799    0.45400    0.46356    1.000
    H1307    H        0.05730    0.49610    0.44100    1.000
    C1308    C        0.15317    0.36550    0.52963    1.000
    O1309    O        0.16934    0.33148    0.56643    1.000
    O1310    O        0.16411    0.39024    0.50390    1.000
    H1311    H        0.75515    0.82922    0.40990    1.000
    H1312    H        0.71990    0.30000    0.99892    1.000
