# CIF file generated by openbabel 3.1.0, see https://openbabel.org
data_I
_chemical_name_common 'image0'
_cell_length_a 27.268
_cell_length_b 13.6992
_cell_length_c 45.888
_cell_angle_alpha 90
_cell_angle_beta 90
_cell_angle_gamma 90
_space_group_name_H-M_alt 'P 1'
_space_group_name_Hall 'P 1'
loop_
    _symmetry_equiv_pos_as_xyz
    x,y,z
loop_
    _atom_site_label
    _atom_site_type_symbol
    _atom_site_fract_x
    _atom_site_fract_y
    _atom_site_fract_z
    _atom_site_occupancy
    C1       C        0.05200    0.02390    0.52785    1.000
    H1       H        0.03140    0.05570    0.54160    1.000
    C2       C        0.06800    0.07480    0.50434    1.000
    H2       H        0.05930    0.14150    0.50210    1.000
    C3       C        0.09720    0.02980    0.48356    1.000
    C4       C        0.10910    0.93170    0.48752    1.000
    H3       H        0.12870    0.89780    0.47370    1.000
    C5       C        0.09160    0.88570    0.51207    1.000
    H4       H        0.09950    0.81870    0.51480    1.000
    C6       C        0.11390    0.08240    0.45695    1.000
    C7       C        0.11390    0.21870    0.42961    1.000
    C8       C        0.14810    0.08070    0.41272    1.000
    C9       C        0.09810    0.32130    0.42458    1.000
    C10      C        0.08860    0.38190    0.44770    1.000
    H5       H        0.09390    0.35980    0.46710    1.000
    C11      C        0.07100    0.47630    0.44262    1.000
    H6       H        0.06550    0.51840    0.45870    1.000
    C12      C        0.07200    0.44920    0.39360    1.000
    H7       H        0.06680    0.47320    0.37440    1.000
    C13      C        0.08950    0.35570    0.39684    1.000
    H8       H        0.09550    0.31570    0.38030    1.000
    C14      C        0.17080    0.02650    0.38839    1.000
    C15      C        0.19250    0.07380    0.36545    1.000
    H9       H        0.19340    0.14310    0.36480    1.000
    C16      C        0.21310    0.01940    0.34317    1.000
    H10      H        0.22820    0.05260    0.32740    1.000
    C17      C        0.19080    0.87580    0.36550    1.000
    H11      H        0.18980    0.80640    0.36560    1.000
    C18      C        0.17000    0.92540    0.38836    1.000
    H12      H        0.15530    0.89080    0.40400    1.000
    C19      C        0.30560    0.06900    0.76170    1.000
    H13      H        0.33350    0.08880    0.77260    1.000
    C20      C        0.31280    0.03300    0.73347    1.000
    H14      H        0.34480    0.02820    0.72540    1.000
    C21      C        0.27210    0.00470    0.71780    1.000
    C22      C        0.22570    0.00810    0.73093    1.000
    H15      H        0.19730    0.98650    0.72080    1.000
    C23      C        0.22260    0.04360    0.75879    1.000
    H16      H        0.19130    0.04500    0.76790    1.000
    C24      C        0.27740    0.97430    0.68658    1.000
    C25      C        0.32360    0.94060    0.64792    1.000
    C26      C        0.24160    0.93870    0.64388    1.000
    C27      C        0.37240    0.92880    0.63459    1.000
    C28      C        0.41470    0.92960    0.65117    1.000
    H17      H        0.41270    0.94220    0.67150    1.000
    C29      C        0.45940    0.91220    0.63852    1.000
    H18      H        0.48780    0.91160    0.65050    1.000
    C30      C        0.42410    0.89870    0.59314    1.000
    H19      H        0.42740    0.88960    0.57270    1.000
    C31      C        0.37790    0.91440    0.60483    1.000
    H20      H        0.35000    0.91530    0.59240    1.000
    C32      C        0.19650    0.92360    0.62635    1.000
    C33      C        0.19870    0.89680    0.59744    1.000
    H21      H        0.22960    0.88920    0.58820    1.000
    C34      C        0.15640    0.88110    0.58200    1.000
    H22      H        0.15870    0.86210    0.56210    1.000
    C35      C        0.10960    0.91920    0.62226    1.000
    H23      H        0.07830    0.92830    0.63100    1.000
    C36      C        0.15050    0.93470    0.63888    1.000
    H24      H        0.14750    0.95290    0.65880    1.000
    I1       I        0.98193    0.95865    0.59731    1.000
    I2       I        0.04743    0.67698    0.56354    1.000
    I3       I        0.19445    0.68838    0.30358    1.000
    I4       I        0.33753    0.82723    0.32224    1.000
    I5       I        0.07766    0.72526    0.36767    1.000
    I6       I        0.01664    0.72364    0.45771    1.000
    N1       N        0.06410    0.92990    0.53240    1.000
    N2       N        0.10250    0.17830    0.45522    1.000
    N3       N        0.13660    0.17340    0.40756    1.000
    N4       N        0.13770    0.03050    0.43707    1.000
    N5       N        0.06210    0.50830    0.41615    1.000
    N6       N        0.21250    0.92090    0.34303    1.000
    N7       N        0.26170    0.07660    0.77390    1.000
    N8       N        0.32220    0.96550    0.67606    1.000
    N9       N        0.28460    0.92770    0.63065    1.000
    N10      N        0.23540    0.96120    0.67184    1.000
    N11      N        0.46430    0.89610    0.60989    1.000
    N12      N        0.11150    0.89160    0.59402    1.000
    Zn1      Zn       0.04807    0.86079    0.57140    1.000
    Zn2      Zn       0.24641    0.84181    0.31108    1.000
    Zn3      Zn       0.03116    0.64266    0.40852    1.000
    C37      C        0.44800    0.97610    0.02785    1.000
    H25      H        0.46860    0.94430    0.04160    1.000
    C38      C        0.43200    0.92520    0.00434    1.000
    H26      H        0.44070    0.85850    0.00210    1.000
    C39      C        0.40280    0.97020    0.98356    1.000
    C40      C        0.39090    0.06830    0.98752    1.000
    H27      H        0.37130    0.10220    0.97370    1.000
    C41      C        0.40840    0.11430    0.01207    1.000
    H28      H        0.40050    0.18130    0.01480    1.000
    C42      C        0.38610    0.91760    0.95695    1.000
    C43      C        0.38610    0.78130    0.92961    1.000
    C44      C        0.35190    0.91930    0.91272    1.000
    C45      C        0.40190    0.67870    0.92458    1.000
    C46      C        0.41140    0.61810    0.94770    1.000
    H29      H        0.40610    0.64020    0.96710    1.000
    C47      C        0.42900    0.52370    0.94262    1.000
    H30      H        0.43450    0.48160    0.95870    1.000
    C48      C        0.42800    0.55080    0.89360    1.000
    H31      H        0.43320    0.52680    0.87440    1.000
    C49      C        0.41050    0.64430    0.89684    1.000
    H32      H        0.40450    0.68430    0.88030    1.000
    C50      C        0.32920    0.97350    0.88839    1.000
    C51      C        0.30750    0.92620    0.86545    1.000
    H33      H        0.30660    0.85690    0.86480    1.000
    C52      C        0.28690    0.98060    0.84317    1.000
    H34      H        0.27180    0.94740    0.82740    1.000
    C53      C        0.30920    0.12420    0.86550    1.000
    H35      H        0.31020    0.19360    0.86560    1.000
    C54      C        0.33000    0.07460    0.88836    1.000
    H36      H        0.34470    0.10920    0.90400    1.000
    C55      C        0.19440    0.93100    0.26170    1.000
    H37      H        0.16650    0.91120    0.27260    1.000
    C56      C        0.18720    0.96700    0.23347    1.000
    H38      H        0.15520    0.97180    0.22540    1.000
    C57      C        0.22790    0.99530    0.21780    1.000
    C58      C        0.27430    0.99190    0.23093    1.000
    H39      H        0.30270    0.01350    0.22080    1.000
    C59      C        0.27740    0.95640    0.25879    1.000
    H40      H        0.30870    0.95500    0.26790    1.000
    C60      C        0.22260    0.02570    0.18658    1.000
    C61      C        0.17640    0.05940    0.14792    1.000
    C62      C        0.25840    0.06130    0.14388    1.000
    C63      C        0.12760    0.07120    0.13459    1.000
    C64      C        0.08530    0.07040    0.15117    1.000
    H41      H        0.08730    0.05780    0.17150    1.000
    C65      C        0.04060    0.08780    0.13852    1.000
    H42      H        0.01220    0.08840    0.15050    1.000
    C66      C        0.07590    0.10130    0.09314    1.000
    H43      H        0.07260    0.11040    0.07270    1.000
    C67      C        0.12210    0.08560    0.10483    1.000
    H44      H        0.15000    0.08470    0.09240    1.000
    C68      C        0.30350    0.07640    0.12635    1.000
    C69      C        0.30130    0.10320    0.09744    1.000
    H45      H        0.27040    0.11080    0.08820    1.000
    C70      C        0.34360    0.11890    0.08200    1.000
    H46      H        0.34130    0.13790    0.06210    1.000
    C71      C        0.39040    0.08080    0.12226    1.000
    H47      H        0.42170    0.07170    0.13100    1.000
    C72      C        0.34950    0.06530    0.13888    1.000
    H48      H        0.35250    0.04710    0.15880    1.000
    I7       I        0.51807    0.04135    0.09731    1.000
    I8       I        0.45257    0.32302    0.06354    1.000
    I9       I        0.30555    0.31162    0.80358    1.000
    I10      I        0.16247    0.17277    0.82224    1.000
    I11      I        0.42234    0.27474    0.86767    1.000
    I12      I        0.48336    0.27636    0.95771    1.000
    N13      N        0.43590    0.07010    0.03240    1.000
    N14      N        0.39750    0.82170    0.95522    1.000
    N15      N        0.36340    0.82660    0.90756    1.000
    N16      N        0.36230    0.96950    0.93707    1.000
    N17      N        0.43790    0.49170    0.91615    1.000
    N18      N        0.28750    0.07910    0.84303    1.000
    N19      N        0.23830    0.92340    0.27390    1.000
    N20      N        0.17780    0.03450    0.17606    1.000
    N21      N        0.21540    0.07230    0.13065    1.000
    N22      N        0.26460    0.03880    0.17184    1.000
    N23      N        0.03570    0.10390    0.10989    1.000
    N24      N        0.38850    0.10840    0.09402    1.000
    Zn4      Zn       0.45193    0.13921    0.07140    1.000
    Zn5      Zn       0.25359    0.15819    0.81108    1.000
    Zn6      Zn       0.46884    0.35734    0.90852    1.000
    C73      C        0.94800    0.52390    0.97215    1.000
    H49      H        0.96860    0.55570    0.95840    1.000
    C74      C        0.93200    0.57480    0.99566    1.000
    H50      H        0.94070    0.64150    0.99790    1.000
    C75      C        0.90280    0.52980    0.01644    1.000
    C76      C        0.89090    0.43170    0.01248    1.000
    H51      H        0.87130    0.39780    0.02630    1.000
    C77      C        0.90840    0.38570    0.98793    1.000
    H52      H        0.90050    0.31870    0.98520    1.000
    C78      C        0.88610    0.58240    0.04305    1.000
    C79      C        0.88610    0.71870    0.07039    1.000
    C80      C        0.85190    0.58070    0.08728    1.000
    C81      C        0.90190    0.82130    0.07542    1.000
    C82      C        0.91140    0.88190    0.05230    1.000
    H53      H        0.90610    0.85980    0.03290    1.000
    C83      C        0.92900    0.97630    0.05738    1.000
    H54      H        0.93450    0.01840    0.04130    1.000
    C84      C        0.92800    0.94920    0.10640    1.000
    H55      H        0.93320    0.97320    0.12560    1.000
    C85      C        0.91050    0.85570    0.10316    1.000
    H56      H        0.90450    0.81570    0.11970    1.000
    C86      C        0.82920    0.52650    0.11161    1.000
    C87      C        0.80750    0.57380    0.13455    1.000
    H57      H        0.80660    0.64310    0.13520    1.000
    C88      C        0.78690    0.51940    0.15683    1.000
    H58      H        0.77180    0.55260    0.17260    1.000
    C89      C        0.80920    0.37580    0.13450    1.000
    H59      H        0.81020    0.30640    0.13440    1.000
    C90      C        0.83000    0.42540    0.11164    1.000
    H60      H        0.84470    0.39080    0.09600    1.000
    C91      C        0.69440    0.56900    0.73830    1.000
    H61      H        0.66650    0.58880    0.72740    1.000
    C92      C        0.68720    0.53300    0.76653    1.000
    H62      H        0.65520    0.52820    0.77460    1.000
    C93      C        0.72790    0.50470    0.78220    1.000
    C94      C        0.77430    0.50810    0.76907    1.000
    H63      H        0.80270    0.48650    0.77920    1.000
    C95      C        0.77740    0.54360    0.74121    1.000
    H64      H        0.80870    0.54500    0.73210    1.000
    C96      C        0.72260    0.47430    0.81342    1.000
    C97      C        0.67640    0.44060    0.85208    1.000
    C98      C        0.75840    0.43870    0.85612    1.000
    C99      C        0.62760    0.42880    0.86541    1.000
    C100     C        0.58530    0.42960    0.84883    1.000
    H65      H        0.58730    0.44220    0.82850    1.000
    C101     C        0.54060    0.41220    0.86148    1.000
    H66      H        0.51220    0.41160    0.84950    1.000
    C102     C        0.57590    0.39870    0.90686    1.000
    H67      H        0.57260    0.38960    0.92730    1.000
    C103     C        0.62210    0.41440    0.89517    1.000
    H68      H        0.65000    0.41530    0.90760    1.000
    C104     C        0.80350    0.42360    0.87365    1.000
    C105     C        0.80130    0.39680    0.90256    1.000
    H69      H        0.77040    0.38920    0.91180    1.000
    C106     C        0.84360    0.38110    0.91800    1.000
    H70      H        0.84130    0.36210    0.93790    1.000
    C107     C        0.89040    0.41920    0.87774    1.000
    H71      H        0.92170    0.42830    0.86900    1.000
    C108     C        0.84950    0.43470    0.86112    1.000
    H72      H        0.85250    0.45290    0.84120    1.000
    I13      I        0.01807    0.45865    0.90269    1.000
    I14      I        0.95257    0.17698    0.93646    1.000
    I15      I        0.80555    0.18838    0.19642    1.000
    I16      I        0.66247    0.32723    0.17776    1.000
    I17      I        0.92234    0.22526    0.13233    1.000
    I18      I        0.98336    0.22364    0.04229    1.000
    N25      N        0.93590    0.42990    0.96760    1.000
    N26      N        0.89750    0.67830    0.04478    1.000
    N27      N        0.86340    0.67340    0.09244    1.000
    N28      N        0.86230    0.53050    0.06293    1.000
    N29      N        0.93790    0.00830    0.08385    1.000
    N30      N        0.78750    0.42090    0.15697    1.000
    N31      N        0.73830    0.57660    0.72610    1.000
    N32      N        0.67780    0.46550    0.82394    1.000
    N33      N        0.71540    0.42770    0.86935    1.000
    N34      N        0.76460    0.46120    0.82816    1.000
    N35      N        0.53570    0.39610    0.89011    1.000
    N36      N        0.88850    0.39160    0.90598    1.000
    Zn7      Zn       0.95193    0.36079    0.92860    1.000
    Zn8      Zn       0.75359    0.34181    0.18892    1.000
    Zn9      Zn       0.96884    0.14266    0.09148    1.000
    C109     C        0.55200    0.47610    0.47215    1.000
    H73      H        0.53140    0.44430    0.45840    1.000
    C110     C        0.56800    0.42520    0.49566    1.000
    H74      H        0.55930    0.35850    0.49790    1.000
    C111     C        0.59720    0.47020    0.51644    1.000
    C112     C        0.60910    0.56830    0.51248    1.000
    H75      H        0.62870    0.60220    0.52630    1.000
    C113     C        0.59160    0.61430    0.48793    1.000
    H76      H        0.59950    0.68130    0.48520    1.000
    C114     C        0.61390    0.41760    0.54305    1.000
    C115     C        0.61390    0.28130    0.57039    1.000
    C116     C        0.64810    0.41930    0.58728    1.000
    C117     C        0.59810    0.17870    0.57542    1.000
    C118     C        0.58860    0.11810    0.55230    1.000
    H77      H        0.59390    0.14020    0.53290    1.000
    C119     C        0.57100    0.02370    0.55738    1.000
    H78      H        0.56550    0.98160    0.54130    1.000
    C120     C        0.57200    0.05080    0.60640    1.000
    H79      H        0.56680    0.02680    0.62560    1.000
    C121     C        0.58950    0.14430    0.60316    1.000
    H80      H        0.59550    0.18430    0.61970    1.000
    C122     C        0.67080    0.47350    0.61161    1.000
    C123     C        0.69250    0.42620    0.63455    1.000
    H81      H        0.69340    0.35690    0.63520    1.000
    C124     C        0.71310    0.48060    0.65683    1.000
    H82      H        0.72820    0.44740    0.67260    1.000
    C125     C        0.69080    0.62420    0.63450    1.000
    H83      H        0.68980    0.69360    0.63440    1.000
    C126     C        0.67000    0.57460    0.61164    1.000
    H84      H        0.65530    0.60920    0.59600    1.000
    C127     C        0.80560    0.43100    0.23830    1.000
    H85      H        0.83350    0.41120    0.22740    1.000
    C128     C        0.81280    0.46700    0.26653    1.000
    H86      H        0.84480    0.47180    0.27460    1.000
    C129     C        0.77210    0.49530    0.28220    1.000
    C130     C        0.72570    0.49190    0.26907    1.000
    H87      H        0.69730    0.51350    0.27920    1.000
    C131     C        0.72260    0.45640    0.24121    1.000
    H88      H        0.69130    0.45500    0.23210    1.000
    C132     C        0.77740    0.52570    0.31342    1.000
    C133     C        0.82360    0.55940    0.35208    1.000
    C134     C        0.74160    0.56130    0.35612    1.000
    C135     C        0.87240    0.57120    0.36541    1.000
    C136     C        0.91470    0.57040    0.34883    1.000
    H89      H        0.91270    0.55780    0.32850    1.000
    C137     C        0.95940    0.58780    0.36148    1.000
    H90      H        0.98780    0.58840    0.34950    1.000
    C138     C        0.92410    0.60130    0.40686    1.000
    H91      H        0.92740    0.61040    0.42730    1.000
    C139     C        0.87790    0.58560    0.39517    1.000
    H92      H        0.85000    0.58470    0.40760    1.000
    C140     C        0.69650    0.57640    0.37365    1.000
    C141     C        0.69870    0.60320    0.40256    1.000
    H93      H        0.72960    0.61080    0.41180    1.000
    C142     C        0.65640    0.61890    0.41800    1.000
    H94      H        0.65870    0.63790    0.43790    1.000
    C143     C        0.60960    0.58080    0.37774    1.000
    H95      H        0.57830    0.57170    0.36900    1.000
    C144     C        0.65050    0.56530    0.36112    1.000
    H96      H        0.64750    0.54710    0.34120    1.000
    I19      I        0.48193    0.54135    0.40269    1.000
    I20      I        0.54743    0.82302    0.43646    1.000
    I21      I        0.69445    0.81162    0.69642    1.000
    I22      I        0.83753    0.67277    0.67776    1.000
    I23      I        0.57766    0.77474    0.63233    1.000
    I24      I        0.51664    0.77636    0.54229    1.000
    N37      N        0.56410    0.57010    0.46760    1.000
    N38      N        0.60250    0.32170    0.54478    1.000
    N39      N        0.63660    0.32660    0.59244    1.000
    N40      N        0.63770    0.46950    0.56293    1.000
    N41      N        0.56210    0.99170    0.58385    1.000
    N42      N        0.71250    0.57910    0.65697    1.000
    N43      N        0.76170    0.42340    0.22610    1.000
    N44      N        0.82220    0.53450    0.32394    1.000
    N45      N        0.78460    0.57230    0.36935    1.000
    N46      N        0.73540    0.53880    0.32816    1.000
    N47      N        0.96430    0.60390    0.39011    1.000
    N48      N        0.61150    0.60840    0.40598    1.000
    Zn10     Zn       0.54807    0.63921    0.42860    1.000
    Zn11     Zn       0.74641    0.65819    0.68892    1.000
    Zn12     Zn       0.53116    0.85734    0.59148    1.000
    C145     C        0.94800    0.97610    0.47215    1.000
    H97      H        0.96860    0.94430    0.45840    1.000
    C146     C        0.93200    0.92520    0.49566    1.000
    H98      H        0.94070    0.85850    0.49790    1.000
    C147     C        0.90280    0.97020    0.51644    1.000
    C148     C        0.89090    0.06830    0.51248    1.000
    H99      H        0.87130    0.10220    0.52630    1.000
    C149     C        0.90840    0.11430    0.48793    1.000
    H100     H        0.90050    0.18130    0.48520    1.000
    C150     C        0.88610    0.91760    0.54305    1.000
    C151     C        0.88610    0.78130    0.57039    1.000
    C152     C        0.85190    0.91930    0.58728    1.000
    C153     C        0.90190    0.67870    0.57542    1.000
    C154     C        0.91140    0.61810    0.55230    1.000
    H101     H        0.90610    0.64020    0.53290    1.000
    C155     C        0.92900    0.52370    0.55738    1.000
    H102     H        0.93450    0.48160    0.54130    1.000
    C156     C        0.92800    0.55080    0.60640    1.000
    H103     H        0.93320    0.52680    0.62560    1.000
    C157     C        0.91050    0.64430    0.60316    1.000
    H104     H        0.90450    0.68430    0.61970    1.000
    C158     C        0.82920    0.97350    0.61161    1.000
    C159     C        0.80750    0.92620    0.63455    1.000
    H105     H        0.80660    0.85690    0.63520    1.000
    C160     C        0.78690    0.98060    0.65683    1.000
    H106     H        0.77180    0.94740    0.67260    1.000
    C161     C        0.80920    0.12420    0.63450    1.000
    H107     H        0.81020    0.19360    0.63440    1.000
    C162     C        0.83000    0.07460    0.61164    1.000
    H108     H        0.84470    0.10920    0.59600    1.000
    C163     C        0.69440    0.93100    0.23830    1.000
    H109     H        0.66650    0.91120    0.22740    1.000
    C164     C        0.68720    0.96700    0.26653    1.000
    H110     H        0.65520    0.97180    0.27460    1.000
    C165     C        0.72790    0.99530    0.28220    1.000
    C166     C        0.77430    0.99190    0.26907    1.000
    H111     H        0.80270    0.01350    0.27920    1.000
    C167     C        0.77740    0.95640    0.24121    1.000
    H112     H        0.80870    0.95500    0.23210    1.000
    C168     C        0.72260    0.02570    0.31342    1.000
    C169     C        0.67640    0.05940    0.35208    1.000
    C170     C        0.75840    0.06130    0.35612    1.000
    C171     C        0.62760    0.07120    0.36541    1.000
    C172     C        0.58530    0.07040    0.34883    1.000
    H113     H        0.58730    0.05780    0.32850    1.000
    C173     C        0.54060    0.08780    0.36148    1.000
    H114     H        0.51220    0.08840    0.34950    1.000
    C174     C        0.57590    0.10130    0.40686    1.000
    H115     H        0.57260    0.11040    0.42730    1.000
    C175     C        0.62210    0.08560    0.39517    1.000
    H116     H        0.65000    0.08470    0.40760    1.000
    C176     C        0.80350    0.07640    0.37365    1.000
    C177     C        0.80130    0.10320    0.40256    1.000
    H117     H        0.77040    0.11080    0.41180    1.000
    C178     C        0.84360    0.11890    0.41800    1.000
    H118     H        0.84130    0.13790    0.43790    1.000
    C179     C        0.89040    0.08080    0.37774    1.000
    H119     H        0.92170    0.07170    0.36900    1.000
    C180     C        0.84950    0.06530    0.36112    1.000
    H120     H        0.85250    0.04710    0.34120    1.000
    I25      I        0.01807    0.04135    0.40269    1.000
    I26      I        0.95257    0.32302    0.43646    1.000
    I27      I        0.80555    0.31162    0.69642    1.000
    I28      I        0.66247    0.17277    0.67776    1.000
    I29      I        0.92234    0.27474    0.63233    1.000
    I30      I        0.98336    0.27636    0.54229    1.000
    N49      N        0.93590    0.07010    0.46760    1.000
    N50      N        0.89750    0.82170    0.54478    1.000
    N51      N        0.86340    0.82660    0.59244    1.000
    N52      N        0.86230    0.96950    0.56293    1.000
    N53      N        0.93790    0.49170    0.58385    1.000
    N54      N        0.78750    0.07910    0.65697    1.000
    N55      N        0.73830    0.92340    0.22610    1.000
    N56      N        0.67780    0.03450    0.32394    1.000
    N57      N        0.71540    0.07230    0.36935    1.000
    N58      N        0.76460    0.03880    0.32816    1.000
    N59      N        0.53570    0.10390    0.39011    1.000
    N60      N        0.88850    0.10840    0.40598    1.000
    Zn13     Zn       0.95193    0.13921    0.42860    1.000
    Zn14     Zn       0.75359    0.15819    0.68892    1.000
    Zn15     Zn       0.96884    0.35734    0.59148    1.000
    C181     C        0.55200    0.02390    0.97215    1.000
    H121     H        0.53140    0.05570    0.95840    1.000
    C182     C        0.56800    0.07480    0.99566    1.000
    H122     H        0.55930    0.14150    0.99790    1.000
    C183     C        0.59720    0.02980    0.01644    1.000
    C184     C        0.60910    0.93170    0.01248    1.000
    H123     H        0.62870    0.89780    0.02630    1.000
    C185     C        0.59160    0.88570    0.98793    1.000
    H124     H        0.59950    0.81870    0.98520    1.000
    C186     C        0.61390    0.08240    0.04305    1.000
    C187     C        0.61390    0.21870    0.07039    1.000
    C188     C        0.64810    0.08070    0.08728    1.000
    C189     C        0.59810    0.32130    0.07542    1.000
    C190     C        0.58860    0.38190    0.05230    1.000
    H125     H        0.59390    0.35980    0.03290    1.000
    C191     C        0.57100    0.47630    0.05738    1.000
    H126     H        0.56550    0.51840    0.04130    1.000
    C192     C        0.57200    0.44920    0.10640    1.000
    H127     H        0.56680    0.47320    0.12560    1.000
    C193     C        0.58950    0.35570    0.10316    1.000
    H128     H        0.59550    0.31570    0.11970    1.000
    C194     C        0.67080    0.02650    0.11161    1.000
    C195     C        0.69250    0.07380    0.13455    1.000
    H129     H        0.69340    0.14310    0.13520    1.000
    C196     C        0.71310    0.01940    0.15683    1.000
    H130     H        0.72820    0.05260    0.17260    1.000
    C197     C        0.69080    0.87580    0.13450    1.000
    H131     H        0.68980    0.80640    0.13440    1.000
    C198     C        0.67000    0.92540    0.11164    1.000
    H132     H        0.65530    0.89080    0.09600    1.000
    C199     C        0.80560    0.06900    0.73830    1.000
    H133     H        0.83350    0.08880    0.72740    1.000
    C200     C        0.81280    0.03300    0.76653    1.000
    H134     H        0.84480    0.02820    0.77460    1.000
    C201     C        0.77210    0.00470    0.78220    1.000
    C202     C        0.72570    0.00810    0.76907    1.000
    H135     H        0.69730    0.98650    0.77920    1.000
    C203     C        0.72260    0.04360    0.74121    1.000
    H136     H        0.69130    0.04500    0.73210    1.000
    C204     C        0.77740    0.97430    0.81342    1.000
    C205     C        0.82360    0.94060    0.85208    1.000
    C206     C        0.74160    0.93870    0.85612    1.000
    C207     C        0.87240    0.92880    0.86541    1.000
    C208     C        0.91470    0.92960    0.84883    1.000
    H137     H        0.91270    0.94220    0.82850    1.000
    C209     C        0.95940    0.91220    0.86148    1.000
    H138     H        0.98780    0.91160    0.84950    1.000
    C210     C        0.92410    0.89870    0.90686    1.000
    H139     H        0.92740    0.88960    0.92730    1.000
    C211     C        0.87790    0.91440    0.89517    1.000
    H140     H        0.85000    0.91530    0.90760    1.000
    C212     C        0.69650    0.92360    0.87365    1.000
    C213     C        0.69870    0.89680    0.90256    1.000
    H141     H        0.72960    0.88920    0.91180    1.000
    C214     C        0.65640    0.88110    0.91800    1.000
    H142     H        0.65870    0.86210    0.93790    1.000
    C215     C        0.60960    0.91920    0.87774    1.000
    H143     H        0.57830    0.92830    0.86900    1.000
    C216     C        0.65050    0.93470    0.86112    1.000
    H144     H        0.64750    0.95290    0.84120    1.000
    I31      I        0.48193    0.95865    0.90269    1.000
    I32      I        0.54743    0.67698    0.93646    1.000
    I33      I        0.69445    0.68838    0.19642    1.000
    I34      I        0.83753    0.82723    0.17776    1.000
    I35      I        0.57766    0.72526    0.13233    1.000
    I36      I        0.51664    0.72364    0.04229    1.000
    N61      N        0.56410    0.92990    0.96760    1.000
    N62      N        0.60250    0.17830    0.04478    1.000
    N63      N        0.63660    0.17340    0.09244    1.000
    N64      N        0.63770    0.03050    0.06293    1.000
    N65      N        0.56210    0.50830    0.08385    1.000
    N66      N        0.71250    0.92090    0.15697    1.000
    N67      N        0.76170    0.07660    0.72610    1.000
    N68      N        0.82220    0.96550    0.82394    1.000
    N69      N        0.78460    0.92770    0.86935    1.000
    N70      N        0.73540    0.96120    0.82816    1.000
    N71      N        0.96430    0.89610    0.89011    1.000
    N72      N        0.61150    0.89160    0.90598    1.000
    Zn16     Zn       0.54807    0.86079    0.92860    1.000
    Zn17     Zn       0.74641    0.84181    0.18892    1.000
    Zn18     Zn       0.53116    0.64266    0.09148    1.000
    C217     C        0.05200    0.47610    0.02785    1.000
    H145     H        0.03140    0.44430    0.04160    1.000
    C218     C        0.06800    0.42520    0.00434    1.000
    H146     H        0.05930    0.35850    0.00210    1.000
    C219     C        0.09720    0.47020    0.98356    1.000
    C220     C        0.10910    0.56830    0.98752    1.000
    H147     H        0.12870    0.60220    0.97370    1.000
    C221     C        0.09160    0.61430    0.01207    1.000
    H148     H        0.09950    0.68130    0.01480    1.000
    C222     C        0.11390    0.41760    0.95695    1.000
    C223     C        0.11390    0.28130    0.92961    1.000
    C224     C        0.14810    0.41930    0.91272    1.000
    C225     C        0.09810    0.17870    0.92458    1.000
    C226     C        0.08860    0.11810    0.94770    1.000
    H149     H        0.09390    0.14020    0.96710    1.000
    C227     C        0.07100    0.02370    0.94262    1.000
    H150     H        0.06550    0.98160    0.95870    1.000
    C228     C        0.07200    0.05080    0.89360    1.000
    H151     H        0.06680    0.02680    0.87440    1.000
    C229     C        0.08950    0.14430    0.89684    1.000
    H152     H        0.09550    0.18430    0.88030    1.000
    C230     C        0.17080    0.47350    0.88839    1.000
    C231     C        0.19250    0.42620    0.86545    1.000
    H153     H        0.19340    0.35690    0.86480    1.000
    C232     C        0.21310    0.48060    0.84317    1.000
    H154     H        0.22820    0.44740    0.82740    1.000
    C233     C        0.19080    0.62420    0.86550    1.000
    H155     H        0.18980    0.69360    0.86560    1.000
    C234     C        0.17000    0.57460    0.88836    1.000
    H156     H        0.15530    0.60920    0.90400    1.000
    C235     C        0.30560    0.43100    0.26170    1.000
    H157     H        0.33350    0.41120    0.27260    1.000
    C236     C        0.31280    0.46700    0.23347    1.000
    H158     H        0.34480    0.47180    0.22540    1.000
    C237     C        0.27210    0.49530    0.21780    1.000
    C238     C        0.22570    0.49190    0.23093    1.000
    H159     H        0.19730    0.51350    0.22080    1.000
    C239     C        0.22260    0.45640    0.25879    1.000
    H160     H        0.19130    0.45500    0.26790    1.000
    C240     C        0.27740    0.52570    0.18658    1.000
    C241     C        0.32360    0.55940    0.14792    1.000
    C242     C        0.24160    0.56130    0.14388    1.000
    C243     C        0.37240    0.57120    0.13459    1.000
    C244     C        0.41470    0.57040    0.15117    1.000
    H161     H        0.41270    0.55780    0.17150    1.000
    C245     C        0.45940    0.58780    0.13852    1.000
    H162     H        0.48780    0.58840    0.15050    1.000
    C246     C        0.42410    0.60130    0.09314    1.000
    H163     H        0.42740    0.61040    0.07270    1.000
    C247     C        0.37790    0.58560    0.10483    1.000
    H164     H        0.35000    0.58470    0.09240    1.000
    C248     C        0.19650    0.57640    0.12635    1.000
    C249     C        0.19870    0.60320    0.09744    1.000
    H165     H        0.22960    0.61080    0.08820    1.000
    C250     C        0.15640    0.61890    0.08200    1.000
    H166     H        0.15870    0.63790    0.06210    1.000
    C251     C        0.10960    0.58080    0.12226    1.000
    H167     H        0.07830    0.57170    0.13100    1.000
    C252     C        0.15050    0.56530    0.13888    1.000
    H168     H        0.14750    0.54710    0.15880    1.000
    I37      I        0.98193    0.54135    0.09731    1.000
    I38      I        0.04743    0.82302    0.06354    1.000
    I39      I        0.19445    0.81162    0.80358    1.000
    I40      I        0.33753    0.67277    0.82224    1.000
    I41      I        0.07766    0.77474    0.86767    1.000
    I42      I        0.01664    0.77636    0.95771    1.000
    N73      N        0.06410    0.57010    0.03240    1.000
    N74      N        0.10250    0.32170    0.95522    1.000
    N75      N        0.13660    0.32660    0.90756    1.000
    N76      N        0.13770    0.46950    0.93707    1.000
    N77      N        0.06210    0.99170    0.91615    1.000
    N78      N        0.21250    0.57910    0.84303    1.000
    N79      N        0.26170    0.42340    0.27390    1.000
    N80      N        0.32220    0.53450    0.17606    1.000
    N81      N        0.28460    0.57230    0.13065    1.000
    N82      N        0.23540    0.53880    0.17184    1.000
    N83      N        0.46430    0.60390    0.10989    1.000
    N84      N        0.11150    0.60840    0.09402    1.000
    Zn19     Zn       0.04807    0.63921    0.07140    1.000
    Zn20     Zn       0.24641    0.65819    0.81108    1.000
    Zn21     Zn       0.03116    0.85734    0.90852    1.000
    C253     C        0.44800    0.52390    0.52785    1.000
    H169     H        0.46860    0.55570    0.54160    1.000
    C254     C        0.43200    0.57480    0.50434    1.000
    H170     H        0.44070    0.64150    0.50210    1.000
    C255     C        0.40280    0.52980    0.48356    1.000
    C256     C        0.39090    0.43170    0.48752    1.000
    H171     H        0.37130    0.39780    0.47370    1.000
    C257     C        0.40840    0.38570    0.51207    1.000
    H172     H        0.40050    0.31870    0.51480    1.000
    C258     C        0.38610    0.58240    0.45695    1.000
    C259     C        0.38610    0.71870    0.42961    1.000
    C260     C        0.35190    0.58070    0.41272    1.000
    C261     C        0.40190    0.82130    0.42458    1.000
    C262     C        0.41140    0.88190    0.44770    1.000
    H173     H        0.40610    0.85980    0.46710    1.000
    C263     C        0.42900    0.97630    0.44262    1.000
    H174     H        0.43450    0.01840    0.45870    1.000
    C264     C        0.42800    0.94920    0.39360    1.000
    H175     H        0.43320    0.97320    0.37440    1.000
    C265     C        0.41050    0.85570    0.39684    1.000
    H176     H        0.40450    0.81570    0.38030    1.000
    C266     C        0.32920    0.52650    0.38839    1.000
    C267     C        0.30750    0.57380    0.36545    1.000
    H177     H        0.30660    0.64310    0.36480    1.000
    C268     C        0.28690    0.51940    0.34317    1.000
    H178     H        0.27180    0.55260    0.32740    1.000
    C269     C        0.30920    0.37580    0.36550    1.000
    H179     H        0.31020    0.30640    0.36560    1.000
    C270     C        0.33000    0.42540    0.38836    1.000
    H180     H        0.34470    0.39080    0.40400    1.000
    C271     C        0.19440    0.56900    0.76170    1.000
    H181     H        0.16650    0.58880    0.77260    1.000
    C272     C        0.18720    0.53300    0.73347    1.000
    H182     H        0.15520    0.52820    0.72540    1.000
    C273     C        0.22790    0.50470    0.71780    1.000
    C274     C        0.27430    0.50810    0.73093    1.000
    H183     H        0.30270    0.48650    0.72080    1.000
    C275     C        0.27740    0.54360    0.75879    1.000
    H184     H        0.30870    0.54500    0.76790    1.000
    C276     C        0.22260    0.47430    0.68658    1.000
    C277     C        0.17640    0.44060    0.64792    1.000
    C278     C        0.25840    0.43870    0.64388    1.000
    C279     C        0.12760    0.42880    0.63459    1.000
    C280     C        0.08530    0.42960    0.65117    1.000
    H185     H        0.08730    0.44220    0.67150    1.000
    C281     C        0.04060    0.41220    0.63852    1.000
    H186     H        0.01220    0.41160    0.65050    1.000
    C282     C        0.07590    0.39870    0.59314    1.000
    H187     H        0.07260    0.38960    0.57270    1.000
    C283     C        0.12210    0.41440    0.60483    1.000
    H188     H        0.15000    0.41530    0.59240    1.000
    C284     C        0.30350    0.42360    0.62635    1.000
    C285     C        0.30130    0.39680    0.59744    1.000
    H189     H        0.27040    0.38920    0.58820    1.000
    C286     C        0.34360    0.38110    0.58200    1.000
    H190     H        0.34130    0.36210    0.56210    1.000
    C287     C        0.39040    0.41920    0.62226    1.000
    H191     H        0.42170    0.42830    0.63100    1.000
    C288     C        0.34950    0.43470    0.63888    1.000
    H192     H        0.35250    0.45290    0.65880    1.000
    I43      I        0.51807    0.45865    0.59731    1.000
    I44      I        0.45257    0.17698    0.56354    1.000
    I45      I        0.30555    0.18838    0.30358    1.000
    I46      I        0.16247    0.32723    0.32224    1.000
    I47      I        0.42234    0.22526    0.36767    1.000
    I48      I        0.48336    0.22364    0.45771    1.000
    N85      N        0.43590    0.42990    0.53240    1.000
    N86      N        0.39750    0.67830    0.45522    1.000
    N87      N        0.36340    0.67340    0.40756    1.000
    N88      N        0.36230    0.53050    0.43707    1.000
    N89      N        0.43790    0.00830    0.41615    1.000
    N90      N        0.28750    0.42090    0.34303    1.000
    N91      N        0.23830    0.57660    0.77390    1.000
    N92      N        0.17780    0.46550    0.67606    1.000
    N93      N        0.21540    0.42770    0.63065    1.000
    N94      N        0.26460    0.46120    0.67184    1.000
    N95      N        0.03570    0.39610    0.60989    1.000
    N96      N        0.38850    0.39160    0.59402    1.000
    Zn22     Zn       0.45193    0.36079    0.57140    1.000
    Zn23     Zn       0.25359    0.34181    0.31108    1.000
    Zn24     Zn       0.46884    0.14266    0.40852    1.000
