# CIF file generated by openbabel 3.1.0, see https://openbabel.org
data_I
_chemical_name_common 'VIXGEQ_clean'
_cell_length_a 7.54
_cell_length_b 9.7794
_cell_length_c 9.7794
_cell_angle_alpha 81.4534
_cell_angle_beta 67.3249
_cell_angle_gamma 67.3249
_space_group_name_H-M_alt 'P 1'
_space_group_name_Hall 'P 1'
loop_
    _symmetry_equiv_pos_as_xyz
    x,y,z
loop_
    _atom_site_label
    _atom_site_type_symbol
    _atom_site_fract_x
    _atom_site_fract_y
    _atom_site_fract_z
    _atom_site_occupancy
    Zr1      Zr       0.19522    0.50502    0.10454    1.000
    Zr2      Zr       0.80478    0.49498    0.89546    1.000
    Zr3      Zr       0.70024    0.10454    0.49498    1.000
    Zr4      Zr       0.29976    0.89546    0.50502    1.000
    C1       C        0.45210    0.68800    0.20280    1.000
    C2       C        0.65490    0.79720    0.68800    1.000
    C3       C        0.14010    0.20280    0.31200    1.000
    C4       C        0.54790    0.31200    0.79720    1.000
    C5       C        0.34290    0.31200    0.79720    1.000
    C6       C        0.65710    0.68800    0.20280    1.000
    C7       C        0.34510    0.20280    0.31200    1.000
    C8       C        0.85990    0.79720    0.68800    1.000
    O1       O        0.70960    0.23100    0.70380    1.000
    O2       O        0.58660    0.70380    0.76900    1.000
    O3       O        0.46160    0.60640    0.11320    1.000
    O4       O        0.35560    0.23100    0.70380    1.000
    O5       O        0.41340    0.29620    0.23100    1.000
    O6       O        0.93200    0.88680    0.60640    1.000
    O7       O        0.06800    0.11320    0.39360    1.000
    O8       O        0.94060    0.70380    0.76900    1.000
    O9       O        0.05940    0.29620    0.23100    1.000
    O10      O        0.53840    0.39360    0.88680    1.000
    O11      O        0.29040    0.76900    0.29620    1.000
    O12      O        0.57480    0.88680    0.60640    1.000
    O13      O        0.18120    0.39360    0.88680    1.000
    O14      O        0.42520    0.11320    0.39360    1.000
    O15      O        0.81880    0.60640    0.11320    1.000
    O16      O        0.64440    0.76900    0.29620    1.000
