# CIF file generated by openbabel 3.1.0, see https://openbabel.org
data_I
_chemical_name_common 'image0'
_cell_length_a 15.516
_cell_length_b 15.899
_cell_length_c 13.27
_cell_angle_alpha 90
_cell_angle_beta 112.469
_cell_angle_gamma 90
_space_group_name_H-M_alt 'P 1'
_space_group_name_Hall 'P 1'
loop_
    _symmetry_equiv_pos_as_xyz
    x,y,z
loop_
    _atom_site_label
    _atom_site_type_symbol
    _atom_site_fract_x
    _atom_site_fract_y
    _atom_site_fract_z
    _atom_site_occupancy
    Eu1      Eu       0.57264    0.54262    0.40634    1.000
    O1       O        0.71450    0.48710    0.43060    1.000
    O2       O        0.55260    0.39300    0.40430    1.000
    O3       O        0.58080    0.51360    0.23340    1.000
    O4       O        0.61320    0.48880    0.09040    1.000
    O5       O        0.50010    0.34910    0.52990    1.000
    C1       C        0.76750    0.47550    0.37870    1.000
    C2       C        0.53280    0.33640    0.45850    1.000
    C3       C        0.64080    0.49390    0.19210    1.000
    C4       C        0.86310    0.45730    0.43780    1.000
    C5       C        0.73820    0.47890    0.26240    1.000
    C6       C        0.54850    0.24620    0.43410    1.000
    C7       C        0.92490    0.44750    0.38900    1.000
    H1       H        0.88430    0.45180    0.51320    1.000
    C8       C        0.80250    0.46910    0.21520    1.000
    C9       C        0.51590    0.18130    0.47890    1.000
    C10      C        0.59570    0.22670    0.36460    1.000
    C11      C        0.59100    0.83700    0.28400    1.000
    H2       H        0.98680    0.43490    0.43110    1.000
    C12      C        0.89650    0.45600    0.27560    1.000
    H3       H        0.78210    0.47150    0.13960    1.000
    H4       H        0.48280    0.19350    0.52260    1.000
    C13      C        0.53190    0.09800    0.45970    1.000
    C14      C        0.61310    0.14430    0.35100    1.000
    O6       O        0.62990    0.28650    0.32010    1.000
    H5       H        0.60720    0.84530    0.22140    1.000
    H6       H        0.63470    0.79980    0.33430    1.000
    H7       H        0.59220    0.89060    0.31840    1.000
    N1       N        0.95720    0.45450    0.21950    1.000
    C15      C        0.58300    0.08180    0.39500    1.000
    N2       N        0.49200    0.03760    0.50950    1.000
    H8       H        0.64760    0.13150    0.30910    1.000
    H9       H        0.59610    0.02660    0.38270    1.000
    H10      H        0.55760    0.71990    0.25930    1.000
    Eu2      Eu       0.42736    0.54262    0.09366    1.000
    O7       O        0.28550    0.48710    0.06940    1.000
    O8       O        0.44740    0.39300    0.09570    1.000
    O9       O        0.41920    0.51360    0.26660    1.000
    O10      O        0.38680    0.48880    0.40960    1.000
    O11      O        0.49990    0.34910    0.97010    1.000
    C16      C        0.23250    0.47550    0.12130    1.000
    C17      C        0.46720    0.33640    0.04150    1.000
    C18      C        0.35920    0.49390    0.30790    1.000
    C19      C        0.13690    0.45730    0.06220    1.000
    C20      C        0.26180    0.47890    0.23760    1.000
    C21      C        0.45150    0.24620    0.06590    1.000
    C22      C        0.07510    0.44750    0.11100    1.000
    H11      H        0.11570    0.45180    0.98680    1.000
    C23      C        0.19750    0.46910    0.28480    1.000
    C24      C        0.48410    0.18130    0.02110    1.000
    C25      C        0.40430    0.22670    0.13540    1.000
    C26      C        0.40900    0.83700    0.21600    1.000
    H12      H        0.01320    0.43490    0.06890    1.000
    C27      C        0.10350    0.45600    0.22440    1.000
    H13      H        0.21790    0.47150    0.36040    1.000
    H14      H        0.51720    0.19350    0.97740    1.000
    C28      C        0.46810    0.09800    0.04030    1.000
    C29      C        0.38690    0.14430    0.14900    1.000
    O12      O        0.37010    0.28650    0.17990    1.000
    H15      H        0.39280    0.84530    0.27860    1.000
    H16      H        0.36530    0.79980    0.16570    1.000
    H17      H        0.40780    0.89060    0.18160    1.000
    N3       N        0.04280    0.45450    0.28050    1.000
    C30      C        0.41700    0.08180    0.10500    1.000
    N4       N        0.50800    0.03760    0.99050    1.000
    H18      H        0.35240    0.13150    0.19090    1.000
    H19      H        0.40390    0.02660    0.11730    1.000
    H20      H        0.44240    0.71990    0.24070    1.000
    Eu3      Eu       0.42736    0.45738    0.59366    1.000
    O13      O        0.28550    0.51290    0.56940    1.000
    O14      O        0.44740    0.60700    0.59570    1.000
    O15      O        0.41920    0.48640    0.76660    1.000
    O16      O        0.38680    0.51120    0.90960    1.000
    O17      O        0.49990    0.65090    0.47010    1.000
    C31      C        0.23250    0.52450    0.62130    1.000
    C32      C        0.46720    0.66360    0.54150    1.000
    C33      C        0.35920    0.50610    0.80790    1.000
    C34      C        0.13690    0.54270    0.56220    1.000
    C35      C        0.26180    0.52110    0.73760    1.000
    C36      C        0.45150    0.75380    0.56590    1.000
    C37      C        0.07510    0.55250    0.61100    1.000
    H21      H        0.11570    0.54820    0.48680    1.000
    C38      C        0.19750    0.53090    0.78480    1.000
    C39      C        0.48410    0.81870    0.52110    1.000
    C40      C        0.40430    0.77330    0.63540    1.000
    C41      C        0.40900    0.16300    0.71600    1.000
    H22      H        0.01320    0.56510    0.56890    1.000
    C42      C        0.10350    0.54400    0.72440    1.000
    H23      H        0.21790    0.52850    0.86040    1.000
    H24      H        0.51720    0.80650    0.47740    1.000
    C43      C        0.46810    0.90200    0.54030    1.000
    C44      C        0.38690    0.85570    0.64900    1.000
    O18      O        0.37010    0.71350    0.67990    1.000
    H25      H        0.39280    0.15470    0.77860    1.000
    H26      H        0.36530    0.20020    0.66570    1.000
    H27      H        0.40780    0.10940    0.68160    1.000
    N5       N        0.04280    0.54550    0.78050    1.000
    C45      C        0.41700    0.91820    0.60500    1.000
    N6       N        0.50800    0.96240    0.49050    1.000
    H28      H        0.35240    0.86850    0.69090    1.000
    H29      H        0.40390    0.97340    0.61730    1.000
    H30      H        0.44240    0.28010    0.74070    1.000
    Eu4      Eu       0.57264    0.45738    0.90634    1.000
    O19      O        0.71450    0.51290    0.93060    1.000
    O20      O        0.55260    0.60700    0.90430    1.000
    O21      O        0.58080    0.48640    0.73340    1.000
    O22      O        0.61320    0.51120    0.59040    1.000
    O23      O        0.50010    0.65090    0.02990    1.000
    C46      C        0.76750    0.52450    0.87870    1.000
    C47      C        0.53280    0.66360    0.95850    1.000
    C48      C        0.64080    0.50610    0.69210    1.000
    C49      C        0.86310    0.54270    0.93780    1.000
    C50      C        0.73820    0.52110    0.76240    1.000
    C51      C        0.54850    0.75380    0.93410    1.000
    C52      C        0.92490    0.55250    0.88900    1.000
    H31      H        0.88430    0.54820    0.01320    1.000
    C53      C        0.80250    0.53090    0.71520    1.000
    C54      C        0.51590    0.81870    0.97890    1.000
    C55      C        0.59570    0.77330    0.86460    1.000
    C56      C        0.59100    0.16300    0.78400    1.000
    H32      H        0.98680    0.56510    0.93110    1.000
    C57      C        0.89650    0.54400    0.77560    1.000
    H33      H        0.78210    0.52850    0.63960    1.000
    H34      H        0.48280    0.80650    0.02260    1.000
    C58      C        0.53190    0.90200    0.95970    1.000
    C59      C        0.61310    0.85570    0.85100    1.000
    O24      O        0.62990    0.71350    0.82010    1.000
    H35      H        0.60720    0.15470    0.72140    1.000
    H36      H        0.63470    0.20020    0.83430    1.000
    H37      H        0.59220    0.10940    0.81840    1.000
    N7       N        0.95720    0.54550    0.71950    1.000
    C60      C        0.58300    0.91820    0.89500    1.000
    N8       N        0.49200    0.96240    0.00950    1.000
    H38      H        0.64760    0.86850    0.80910    1.000
    H39      H        0.59610    0.97340    0.88270    1.000
    H40      H        0.55760    0.28010    0.75930    1.000
    O25      O        0.50000    0.65330    0.25000    1.000
    C61      C        0.50000    0.71700    0.25000    1.000
    N9       N        0.50000    0.79900    0.25000    1.000
    O26      O        0.50000    0.34670    0.75000    1.000
    C62      C        0.50000    0.28300    0.75000    1.000
    N10      N        0.50000    0.20100    0.75000    1.000
