# CIF file generated by openbabel 3.1.0, see https://openbabel.org
data_I
_chemical_name_common 'image0'
_cell_length_a 14.044
_cell_length_b 20.297
_cell_length_c 23.635
_cell_angle_alpha 90
_cell_angle_beta 90
_cell_angle_gamma 90
_space_group_name_H-M_alt 'P 1'
_space_group_name_Hall 'P 1'
loop_
    _symmetry_equiv_pos_as_xyz
    x,y,z
loop_
    _atom_site_label
    _atom_site_type_symbol
    _atom_site_fract_x
    _atom_site_fract_y
    _atom_site_fract_z
    _atom_site_occupancy
    N1       N        0.47960    0.70400    0.08320    1.000
    C1       C        0.56460    0.68320    0.08050    1.000
    H1       H        0.59230    0.67080    0.11470    1.000
    C2       C        0.44100    0.72060    0.03330    1.000
    H2       H        0.37930    0.73720    0.03280    1.000
    Cd1      Cd       0.89999    0.73070    0.83136    1.000
    N2       N        0.88700    0.84270    0.85650    1.000
    N3       N        0.88140    0.86390    0.90710    1.000
    N4       N        0.87490    0.92870    0.90410    1.000
    N5       N        0.88460    0.89100    0.81810    1.000
    N6       N        0.85530    0.14330    0.78860    1.000
    N7       N        0.75040    0.70230    0.87190    1.000
    N8       N        0.66750    0.70720    0.84320    1.000
    N9       N        0.59380    0.70390    0.87820    1.000
    N10      N        0.72940    0.69380    0.92630    1.000
    N11      N        0.03920    0.75250    0.77930    1.000
    N12      N        0.12750    0.74940    0.79730    1.000
    C3       C        0.88110    0.94480    0.84990    1.000
    C4       C        0.87420    0.01290    0.82870    1.000
    C5       C        0.86540    0.06530    0.86580    1.000
    H3       H        0.86550    0.05810    0.90460    1.000
    C6       C        0.87120    0.02850    0.77000    1.000
    H4       H        0.87320    0.99540    0.74280    1.000
    C7       C        0.85640    0.12950    0.84430    1.000
    H5       H        0.85090    0.16420    0.86980    1.000
    C8       C        0.86540    0.09160    0.75470    1.000
    H6       H        0.86880    0.10040    0.71620    1.000
    C9       C        0.63400    0.69640    0.93050    1.000
    C10      C        0.58070    0.69470    0.98210    1.000
    C11      C        0.48790    0.71430    0.98350    1.000
    H7       H        0.45640    0.72340    0.94980    1.000
    C12      C        0.62210    0.67660    0.03190    1.000
    H8       H        0.68420    0.66090    0.03370    1.000
    C13      C        0.43700    0.76440    0.79690    1.000
    H9       H        0.47010    0.77470    0.82980    1.000
    C14      C        0.34060    0.76440    0.79800    1.000
    H10      H        0.31010    0.77430    0.83190    1.000
    N13      N        0.02040    0.29600    0.08320    1.000
    C15      C        0.93540    0.31680    0.08050    1.000
    H11      H        0.90770    0.32920    0.11470    1.000
    C16      C        0.05900    0.27940    0.03330    1.000
    H12      H        0.12070    0.26280    0.03280    1.000
    Cd2      Cd       0.60001    0.26930    0.83136    1.000
    N14      N        0.61300    0.15730    0.85650    1.000
    N15      N        0.61860    0.13610    0.90710    1.000
    N16      N        0.62510    0.07130    0.90410    1.000
    N17      N        0.61540    0.10900    0.81810    1.000
    N18      N        0.64470    0.85670    0.78860    1.000
    N19      N        0.74960    0.29770    0.87190    1.000
    N20      N        0.83250    0.29280    0.84320    1.000
    N21      N        0.90620    0.29610    0.87820    1.000
    N22      N        0.77060    0.30620    0.92630    1.000
    N23      N        0.46080    0.24750    0.77930    1.000
    N24      N        0.37250    0.25060    0.79730    1.000
    C17      C        0.61890    0.05520    0.84990    1.000
    C18      C        0.62580    0.98710    0.82870    1.000
    C19      C        0.63460    0.93470    0.86580    1.000
    H13      H        0.63450    0.94190    0.90460    1.000
    C20      C        0.62880    0.97150    0.77000    1.000
    H14      H        0.62680    0.00460    0.74280    1.000
    C21      C        0.64360    0.87050    0.84430    1.000
    H15      H        0.64910    0.83580    0.86980    1.000
    C22      C        0.63460    0.90840    0.75470    1.000
    H16      H        0.63120    0.89960    0.71620    1.000
    C23      C        0.86600    0.30360    0.93050    1.000
    C24      C        0.91930    0.30530    0.98210    1.000
    C25      C        0.01210    0.28570    0.98350    1.000
    H17      H        0.04360    0.27660    0.94980    1.000
    C26      C        0.87790    0.32340    0.03190    1.000
    H18      H        0.81580    0.33910    0.03370    1.000
    C27      C        0.06300    0.23560    0.79690    1.000
    H19      H        0.02990    0.22530    0.82980    1.000
    C28      C        0.15940    0.23560    0.79800    1.000
    H20      H        0.18990    0.22570    0.83190    1.000
    N25      N        0.02040    0.20400    0.41680    1.000
    C29      C        0.93540    0.18320    0.41950    1.000
    H21      H        0.90770    0.17080    0.38530    1.000
    C30      C        0.05900    0.22060    0.46670    1.000
    H22      H        0.12070    0.23720    0.46720    1.000
    Cd3      Cd       0.60001    0.23070    0.66864    1.000
    N26      N        0.61300    0.34270    0.64350    1.000
    N27      N        0.61860    0.36390    0.59290    1.000
    N28      N        0.62510    0.42870    0.59590    1.000
    N29      N        0.61540    0.39100    0.68190    1.000
    N30      N        0.64470    0.64330    0.71140    1.000
    N31      N        0.74960    0.20230    0.62810    1.000
    N32      N        0.83250    0.20720    0.65680    1.000
    N33      N        0.90620    0.20390    0.62180    1.000
    N34      N        0.77060    0.19380    0.57370    1.000
    N35      N        0.46080    0.25250    0.72070    1.000
    N36      N        0.37250    0.24940    0.70270    1.000
    C31      C        0.61890    0.44480    0.65010    1.000
    C32      C        0.62580    0.51290    0.67130    1.000
    C33      C        0.63460    0.56530    0.63420    1.000
    H23      H        0.63450    0.55810    0.59540    1.000
    C34      C        0.62880    0.52850    0.73000    1.000
    H24      H        0.62680    0.49540    0.75720    1.000
    C35      C        0.64360    0.62950    0.65570    1.000
    H25      H        0.64910    0.66420    0.63020    1.000
    C36      C        0.63460    0.59160    0.74530    1.000
    H26      H        0.63120    0.60040    0.78380    1.000
    C37      C        0.86600    0.19640    0.56950    1.000
    C38      C        0.91930    0.19470    0.51790    1.000
    C39      C        0.01210    0.21430    0.51650    1.000
    H27      H        0.04360    0.22340    0.55020    1.000
    C40      C        0.87790    0.17660    0.46810    1.000
    H28      H        0.81580    0.16090    0.46630    1.000
    C41      C        0.06300    0.26440    0.70310    1.000
    H29      H        0.02990    0.27470    0.67020    1.000
    C42      C        0.15940    0.26440    0.70200    1.000
    H30      H        0.18990    0.27430    0.66810    1.000
    N37      N        0.47960    0.79600    0.41680    1.000
    C43      C        0.56460    0.81680    0.41950    1.000
    H31      H        0.59230    0.82920    0.38530    1.000
    C44      C        0.44100    0.77940    0.46670    1.000
    H32      H        0.37930    0.76280    0.46720    1.000
    Cd4      Cd       0.89999    0.76930    0.66864    1.000
    N38      N        0.88700    0.65730    0.64350    1.000
    N39      N        0.88140    0.63610    0.59290    1.000
    N40      N        0.87490    0.57130    0.59590    1.000
    N41      N        0.88460    0.60900    0.68190    1.000
    N42      N        0.85530    0.35670    0.71140    1.000
    N43      N        0.75040    0.79770    0.62810    1.000
    N44      N        0.66750    0.79280    0.65680    1.000
    N45      N        0.59380    0.79610    0.62180    1.000
    N46      N        0.72940    0.80620    0.57370    1.000
    N47      N        0.03920    0.74750    0.72070    1.000
    N48      N        0.12750    0.75060    0.70270    1.000
    C45      C        0.88110    0.55520    0.65010    1.000
    C46      C        0.87420    0.48710    0.67130    1.000
    C47      C        0.86540    0.43470    0.63420    1.000
    H33      H        0.86550    0.44190    0.59540    1.000
    C48      C        0.87120    0.47150    0.73000    1.000
    H34      H        0.87320    0.50460    0.75720    1.000
    C49      C        0.85640    0.37050    0.65570    1.000
    H35      H        0.85090    0.33580    0.63020    1.000
    C50      C        0.86540    0.40840    0.74530    1.000
    H36      H        0.86880    0.39960    0.78380    1.000
    C51      C        0.63400    0.80360    0.56950    1.000
    C52      C        0.58070    0.80530    0.51790    1.000
    C53      C        0.48790    0.78570    0.51650    1.000
    H37      H        0.45640    0.77660    0.55020    1.000
    C54      C        0.62210    0.82340    0.46810    1.000
    H38      H        0.68420    0.83910    0.46630    1.000
    C55      C        0.43700    0.73560    0.70310    1.000
    H39      H        0.47010    0.72530    0.67020    1.000
    C56      C        0.34060    0.73560    0.70200    1.000
    H40      H        0.31010    0.72570    0.66810    1.000
    N49      N        0.52040    0.29600    0.91680    1.000
    C57      C        0.43540    0.31680    0.91950    1.000
    H41      H        0.40770    0.32920    0.88530    1.000
    C58      C        0.55900    0.27940    0.96670    1.000
    H42      H        0.62070    0.26280    0.96720    1.000
    Cd5      Cd       0.10001    0.26930    0.16864    1.000
    N50      N        0.11300    0.15730    0.14350    1.000
    N51      N        0.11860    0.13610    0.09290    1.000
    N52      N        0.12510    0.07130    0.09590    1.000
    N53      N        0.11540    0.10900    0.18190    1.000
    N54      N        0.14470    0.85670    0.21140    1.000
    N55      N        0.24960    0.29770    0.12810    1.000
    N56      N        0.33250    0.29280    0.15680    1.000
    N57      N        0.40620    0.29610    0.12180    1.000
    N58      N        0.27060    0.30620    0.07370    1.000
    N59      N        0.96080    0.24750    0.22070    1.000
    N60      N        0.87250    0.25060    0.20270    1.000
    C59      C        0.11890    0.05520    0.15010    1.000
    C60      C        0.12580    0.98710    0.17130    1.000
    C61      C        0.13460    0.93470    0.13420    1.000
    H43      H        0.13450    0.94190    0.09540    1.000
    C62      C        0.12880    0.97150    0.23000    1.000
    H44      H        0.12680    0.00460    0.25720    1.000
    C63      C        0.14360    0.87050    0.15570    1.000
    H45      H        0.14910    0.83580    0.13020    1.000
    C64      C        0.13460    0.90840    0.24530    1.000
    H46      H        0.13120    0.89960    0.28380    1.000
    C65      C        0.36600    0.30360    0.06950    1.000
    C66      C        0.41930    0.30530    0.01790    1.000
    C67      C        0.51210    0.28570    0.01650    1.000
    H47      H        0.54360    0.27660    0.05020    1.000
    C68      C        0.37790    0.32340    0.96810    1.000
    H48      H        0.31580    0.33910    0.96630    1.000
    C69      C        0.56300    0.23560    0.20310    1.000
    H49      H        0.52990    0.22530    0.17020    1.000
    C70      C        0.65940    0.23560    0.20200    1.000
    H50      H        0.68990    0.22570    0.16810    1.000
    N61      N        0.97960    0.70400    0.91680    1.000
    C71      C        0.06460    0.68320    0.91950    1.000
    H51      H        0.09230    0.67080    0.88530    1.000
    C72      C        0.94100    0.72060    0.96670    1.000
    H52      H        0.87930    0.73720    0.96720    1.000
    Cd6      Cd       0.39999    0.73070    0.16864    1.000
    N62      N        0.38700    0.84270    0.14350    1.000
    N63      N        0.38140    0.86390    0.09290    1.000
    N64      N        0.37490    0.92870    0.09590    1.000
    N65      N        0.38460    0.89100    0.18190    1.000
    N66      N        0.35530    0.14330    0.21140    1.000
    N67      N        0.25040    0.70230    0.12810    1.000
    N68      N        0.16750    0.70720    0.15680    1.000
    N69      N        0.09380    0.70390    0.12180    1.000
    N70      N        0.22940    0.69380    0.07370    1.000
    N71      N        0.53920    0.75250    0.22070    1.000
    N72      N        0.62750    0.74940    0.20270    1.000
    C73      C        0.38110    0.94480    0.15010    1.000
    C74      C        0.37420    0.01290    0.17130    1.000
    C75      C        0.36540    0.06530    0.13420    1.000
    H53      H        0.36550    0.05810    0.09540    1.000
    C76      C        0.37120    0.02850    0.23000    1.000
    H54      H        0.37320    0.99540    0.25720    1.000
    C77      C        0.35640    0.12950    0.15570    1.000
    H55      H        0.35090    0.16420    0.13020    1.000
    C78      C        0.36540    0.09160    0.24530    1.000
    H56      H        0.36880    0.10040    0.28380    1.000
    C79      C        0.13400    0.69640    0.06950    1.000
    C80      C        0.08070    0.69470    0.01790    1.000
    C81      C        0.98790    0.71430    0.01650    1.000
    H57      H        0.95640    0.72340    0.05020    1.000
    C82      C        0.12210    0.67660    0.96810    1.000
    H58      H        0.18420    0.66090    0.96630    1.000
    C83      C        0.93700    0.76440    0.20310    1.000
    H59      H        0.97010    0.77470    0.17020    1.000
    C84      C        0.84060    0.76440    0.20200    1.000
    H60      H        0.81010    0.77430    0.16810    1.000
    N73      N        0.97960    0.79600    0.58320    1.000
    C85      C        0.06460    0.81680    0.58050    1.000
    H61      H        0.09230    0.82920    0.61470    1.000
    C86      C        0.94100    0.77940    0.53330    1.000
    H62      H        0.87930    0.76280    0.53280    1.000
    Cd7      Cd       0.39999    0.76930    0.33136    1.000
    N74      N        0.38700    0.65730    0.35650    1.000
    N75      N        0.38140    0.63610    0.40710    1.000
    N76      N        0.37490    0.57130    0.40410    1.000
    N77      N        0.38460    0.60900    0.31810    1.000
    N78      N        0.35530    0.35670    0.28860    1.000
    N79      N        0.25040    0.79770    0.37190    1.000
    N80      N        0.16750    0.79280    0.34320    1.000
    N81      N        0.09380    0.79610    0.37820    1.000
    N82      N        0.22940    0.80620    0.42630    1.000
    N83      N        0.53920    0.74750    0.27930    1.000
    N84      N        0.62750    0.75060    0.29730    1.000
    C87      C        0.38110    0.55520    0.34990    1.000
    C88      C        0.37420    0.48710    0.32870    1.000
    C89      C        0.36540    0.43470    0.36580    1.000
    H63      H        0.36550    0.44190    0.40460    1.000
    C90      C        0.37120    0.47150    0.27000    1.000
    H64      H        0.37320    0.50460    0.24280    1.000
    C91      C        0.35640    0.37050    0.34430    1.000
    H65      H        0.35090    0.33580    0.36980    1.000
    C92      C        0.36540    0.40840    0.25470    1.000
    H66      H        0.36880    0.39960    0.21620    1.000
    C93      C        0.13400    0.80360    0.43050    1.000
    C94      C        0.08070    0.80530    0.48210    1.000
    C95      C        0.98790    0.78570    0.48350    1.000
    H67      H        0.95640    0.77660    0.44980    1.000
    C96      C        0.12210    0.82340    0.53190    1.000
    H68      H        0.18420    0.83910    0.53370    1.000
    C97      C        0.93700    0.73560    0.29690    1.000
    H69      H        0.97010    0.72530    0.32980    1.000
    C98      C        0.84060    0.73560    0.29800    1.000
    H70      H        0.81010    0.72570    0.33190    1.000
    N85      N        0.52040    0.20400    0.58320    1.000
    C99      C        0.43540    0.18320    0.58050    1.000
    H71      H        0.40770    0.17080    0.61470    1.000
    C100     C        0.55900    0.22060    0.53330    1.000
    H72      H        0.62070    0.23720    0.53280    1.000
    Cd8      Cd       0.10001    0.23070    0.33136    1.000
    N86      N        0.11300    0.34270    0.35650    1.000
    N87      N        0.11860    0.36390    0.40710    1.000
    N88      N        0.12510    0.42870    0.40410    1.000
    N89      N        0.11540    0.39100    0.31810    1.000
    N90      N        0.14470    0.64330    0.28860    1.000
    N91      N        0.24960    0.20230    0.37190    1.000
    N92      N        0.33250    0.20720    0.34320    1.000
    N93      N        0.40620    0.20390    0.37820    1.000
    N94      N        0.27060    0.19380    0.42630    1.000
    N95      N        0.96080    0.25250    0.27930    1.000
    N96      N        0.87250    0.24940    0.29730    1.000
    C101     C        0.11890    0.44480    0.34990    1.000
    C102     C        0.12580    0.51290    0.32870    1.000
    C103     C        0.13460    0.56530    0.36580    1.000
    H73      H        0.13450    0.55810    0.40460    1.000
    C104     C        0.12880    0.52850    0.27000    1.000
    H74      H        0.12680    0.49540    0.24280    1.000
    C105     C        0.14360    0.62950    0.34430    1.000
    H75      H        0.14910    0.66420    0.36980    1.000
    C106     C        0.13460    0.59160    0.25470    1.000
    H76      H        0.13120    0.60040    0.21620    1.000
    C107     C        0.36600    0.19640    0.43050    1.000
    C108     C        0.41930    0.19470    0.48210    1.000
    C109     C        0.51210    0.21430    0.48350    1.000
    H77      H        0.54360    0.22340    0.44980    1.000
    C110     C        0.37790    0.17660    0.53190    1.000
    H78      H        0.31580    0.16090    0.53370    1.000
    C111     C        0.56300    0.26440    0.29690    1.000
    H79      H        0.52990    0.27470    0.32980    1.000
    C112     C        0.65940    0.26440    0.29800    1.000
    H80      H        0.68990    0.27430    0.33190    1.000
    Cd9      Cd       0.65567    0.75000    0.75000    1.000
    O1       O        0.81550    0.75000    0.75000    1.000
    N97      N        0.48610    0.75000    0.75000    1.000
    C113     C        0.18040    0.75000    0.75000    1.000
    C114     C        0.28390    0.75000    0.75000    1.000
    Cd10     Cd       0.84433    0.25000    0.75000    1.000
    O2       O        0.68450    0.25000    0.75000    1.000
    N98      N        0.01390    0.25000    0.75000    1.000
    C115     C        0.31960    0.25000    0.75000    1.000
    C116     C        0.21610    0.25000    0.75000    1.000
    Cd11     Cd       0.34433    0.25000    0.25000    1.000
    O3       O        0.18450    0.25000    0.25000    1.000
    N99      N        0.51390    0.25000    0.25000    1.000
    C117     C        0.81960    0.25000    0.25000    1.000
    C118     C        0.71610    0.25000    0.25000    1.000
    Cd12     Cd       0.15567    0.75000    0.25000    1.000
    O4       O        0.31550    0.75000    0.25000    1.000
    N100     N        0.98610    0.75000    0.25000    1.000
    C119     C        0.68040    0.75000    0.25000    1.000
    C120     C        0.78390    0.75000    0.25000    1.000
