# CIF file generated by openbabel 3.1.0, see https://openbabel.org
data_I
_chemical_name_common 'WAYKAK_clean'
_cell_length_a 8.6631
_cell_length_b 14.2422
_cell_length_c 14.5497
_cell_angle_alpha 113.513
_cell_angle_beta 107.32
_cell_angle_gamma 90
_space_group_name_H-M_alt 'P 1'
_space_group_name_Hall 'P 1'
loop_
    _symmetry_equiv_pos_as_xyz
    x,y,z
loop_
    _atom_site_label
    _atom_site_type_symbol
    _atom_site_fract_x
    _atom_site_fract_y
    _atom_site_fract_z
    _atom_site_occupancy
    Nd1      Nd       0.11549    0.00502    0.54716    1.000
    Nd2      Nd       0.56833    0.99498    0.45284    1.000
    H1       H        0.11030    0.29280    0.48700    1.000
    H2       H        0.09510    0.44910    0.47320    1.000
    H3       H        0.61690    0.36550    0.31340    1.000
    H4       H        0.62830    0.21210    0.33280    1.000
    H5       H        0.02770    0.60960    0.52140    1.000
    H6       H        0.99530    0.77020    0.52160    1.000
    H7       H        0.62290    0.64200    0.24960    1.000
    H8       H        0.65590    0.47980    0.24700    1.000
    H9       H        0.35260    0.71290    0.22440    1.000
    H10      H        0.27660    0.55720    0.07580    1.000
    H11      H        0.81010    0.57530    0.05740    1.000
    H12      H        0.88610    0.73090    0.20540    1.000
    H13      H        0.62330    0.70720    0.51300    1.000
    H14      H        0.62190    0.55090    0.52680    1.000
    H15      H        0.30350    0.63450    0.68660    1.000
    H16      H        0.29550    0.78790    0.66720    1.000
    H17      H        0.50630    0.39040    0.47860    1.000
    H18      H        0.47370    0.22980    0.47840    1.000
    H19      H        0.37330    0.35800    0.75040    1.000
    H20      H        0.40890    0.52020    0.75300    1.000
    H21      H        0.12820    0.28710    0.77560    1.000
    H22      H        0.20080    0.44280    0.92420    1.000
    H23      H        0.75270    0.42470    0.94260    1.000
    H24      H        0.68070    0.26910    0.79460    1.000
    C1       C        0.87754    0.13850    0.42788    1.000
    C2       C        0.86982    0.23740    0.41364    1.000
    C3       C        0.01040    0.30820    0.45400    1.000
    C4       C        0.00110    0.40180    0.44460    1.000
    C5       C        0.85313    0.42580    0.39326    1.000
    C6       C        0.71570    0.35220    0.35020    1.000
    C7       C        0.72232    0.25930    0.36084    1.000
    C8       C        0.84020    0.52740    0.38680    1.000
    C9       C        0.94440    0.61590    0.46740    1.000
    C10      C        0.92490    0.71240    0.46760    1.000
    C11      C        0.80158    0.72360    0.38816    1.000
    C12      C        0.70289    0.63550    0.30498    1.000
    C13      C        0.72200    0.53790    0.30360    1.000
    C14      C        0.76098    0.82820    0.39576    1.000
    C15      C        0.17835    0.83880    0.32530    1.000
    C16      C        0.12640    0.73850    0.22900    1.000
    C17      C        0.24290    0.68600    0.19040    1.000
    C18      C        0.19650    0.59230    0.10040    1.000
    C19      C        0.03370    0.55050    0.04660    1.000
    C20      C        0.91970    0.60300    0.08940    1.000
    C21      C        0.96550    0.69660    0.17920    1.000
    C22      C        0.44966    0.86150    0.57212    1.000
    C23      C        0.45618    0.76260    0.58636    1.000
    C24      C        0.55640    0.69180    0.54600    1.000
    C25      C        0.55650    0.59820    0.55540    1.000
    C26      C        0.45987    0.57420    0.60674    1.000
    C27      C        0.36550    0.64780    0.64980    1.000
    C28      C        0.36148    0.74070    0.63916    1.000
    C29      C        0.45340    0.47260    0.61320    1.000
    C30      C        0.47700    0.38410    0.53260    1.000
    C31      C        0.45730    0.28760    0.53240    1.000
    C32      C        0.41342    0.27640    0.61184    1.000
    C33      C        0.39791    0.36450    0.69502    1.000
    C34      C        0.41840    0.46210    0.69640    1.000
    C35      C        0.36522    0.17180    0.60424    1.000
    C36      C        0.85305    0.16120    0.67470    1.000
    C37      C        0.89740    0.26150    0.77100    1.000
    C38      C        0.05250    0.31400    0.80960    1.000
    C39      C        0.09610    0.40770    0.89960    1.000
    C40      C        0.98710    0.44950    0.95340    1.000
    C41      C        0.83030    0.39700    0.91060    1.000
    C42      C        0.78630    0.30340    0.82080    1.000
    O1       O        0.01385    0.10810    0.44950    1.000
    O2       O        0.74555    0.09320    0.41790    1.000
    O3       O        0.84184    0.90910    0.47908    1.000
    O4       O        0.64095    0.83530    0.32710    1.000
    O5       O        0.07418    0.87790    0.36936    1.000
    O6       O        0.32473    0.87760    0.35786    1.000
    O7       O        0.56435    0.89190    0.55050    1.000
    O8       O        0.32765    0.90680    0.58210    1.000
    O9       O        0.36276    0.09090    0.52092    1.000
    O10      O        0.31385    0.16470    0.67290    1.000
    O11      O        0.70482    0.12210    0.63064    1.000
    O12      O        0.96687    0.12240    0.64214    1.000
