# CIF file generated by openbabel 3.1.0, see https://openbabel.org
data_I
_chemical_name_common 'image0'
_cell_length_a 23.5676
_cell_length_b 10.2415
_cell_length_c 16.2353
_cell_angle_alpha 90
_cell_angle_beta 108.115
_cell_angle_gamma 90
_space_group_name_H-M_alt 'P 1'
_space_group_name_Hall 'P 1'
loop_
    _symmetry_equiv_pos_as_xyz
    x,y,z
loop_
    _atom_site_label
    _atom_site_type_symbol
    _atom_site_fract_x
    _atom_site_fract_y
    _atom_site_fract_z
    _atom_site_occupancy
    Ga1      Ga       0.29799    0.09083    0.02449    1.000
    Zn1      Zn       0.12257    0.94329    0.89092    1.000
    Zn2      Zn       0.19794    0.75388    0.72244    1.000
    P1       P        0.23336    0.01270    0.82455    1.000
    P2       P        0.16927    0.84718    0.53668    1.000
    P3       P        0.16584    0.66552    0.88370    1.000
    P4       P        0.99910    0.87650    0.74600    1.000
    O1       O        0.24862    0.89070    0.78170    1.000
    O2       O        0.27750    0.01640    0.91590    1.000
    O3       O        0.24088    0.13300    0.77290    1.000
    O4       O        0.16880    0.01080    0.82280    1.000
    O5       O        0.14826    0.80350    0.61280    1.000
    O6       O        0.13550    0.02800    0.00070    1.000
    O7       O        0.23705    0.13060    0.07140    1.000
    O8       O        0.34423    0.24270    0.03420    1.000
    O9       O        0.14768    0.68980    0.78530    1.000
    O10      O        0.35024    0.97560    0.10210    1.000
    O11      O        0.13210    0.75920    0.92420    1.000
    O12      O        0.23348    0.68720    0.92600    1.000
    O13      O        0.04140    0.95780    0.81910    1.000
    O14      O        0.03420    0.78390    0.70740    1.000
    P5       P        0.48250    0.41300    0.78880    1.000
    Ga2      Ga       0.79799    0.59083    0.02449    1.000
    Zn3      Zn       0.62257    0.44329    0.89092    1.000
    Zn4      Zn       0.69794    0.25388    0.72244    1.000
    P6       P        0.73336    0.51270    0.82455    1.000
    P7       P        0.66927    0.34718    0.53668    1.000
    P8       P        0.66584    0.16552    0.88370    1.000
    P9       P        0.49910    0.37650    0.74600    1.000
    O15      O        0.74862    0.39070    0.78170    1.000
    O16      O        0.77750    0.51640    0.91590    1.000
    O17      O        0.74088    0.63300    0.77290    1.000
    O18      O        0.66880    0.51080    0.82280    1.000
    O19      O        0.64826    0.30350    0.61280    1.000
    O20      O        0.63550    0.52800    0.00070    1.000
    O21      O        0.73705    0.63060    0.07140    1.000
    O22      O        0.84423    0.74270    0.03420    1.000
    O23      O        0.64768    0.18980    0.78530    1.000
    O24      O        0.85024    0.47560    0.10210    1.000
    O25      O        0.63210    0.25920    0.92420    1.000
    O26      O        0.73348    0.18720    0.92600    1.000
    O27      O        0.54140    0.45780    0.81910    1.000
    O28      O        0.53420    0.28390    0.70740    1.000
    P10      P        0.98250    0.91300    0.78880    1.000
    Ga3      Ga       0.70201    0.09083    0.47551    1.000
    Zn5      Zn       0.87743    0.94329    0.60908    1.000
    Zn6      Zn       0.80206    0.75388    0.77756    1.000
    P11      P        0.76664    0.01270    0.67545    1.000
    P12      P        0.83073    0.84718    0.96332    1.000
    P13      P        0.83416    0.66552    0.61630    1.000
    P14      P        0.00090    0.87650    0.75400    1.000
    O29      O        0.75138    0.89070    0.71830    1.000
    O30      O        0.72250    0.01640    0.58410    1.000
    O31      O        0.75912    0.13300    0.72710    1.000
    O32      O        0.83120    0.01080    0.67720    1.000
    O33      O        0.85174    0.80350    0.88720    1.000
    O34      O        0.86450    0.02800    0.49930    1.000
    O35      O        0.76295    0.13060    0.42860    1.000
    O36      O        0.65577    0.24270    0.46580    1.000
    O37      O        0.85232    0.68980    0.71470    1.000
    O38      O        0.64976    0.97560    0.39790    1.000
    O39      O        0.86790    0.75920    0.57580    1.000
    O40      O        0.76652    0.68720    0.57400    1.000
    O41      O        0.95860    0.95780    0.68090    1.000
    O42      O        0.96580    0.78390    0.79260    1.000
    P15      P        0.51750    0.41300    0.71120    1.000
    Ga4      Ga       0.20201    0.59083    0.47551    1.000
    Zn7      Zn       0.37743    0.44329    0.60908    1.000
    Zn8      Zn       0.30206    0.25388    0.77756    1.000
    P16      P        0.26664    0.51270    0.67545    1.000
    P17      P        0.33073    0.34718    0.96332    1.000
    P18      P        0.33416    0.16552    0.61630    1.000
    P19      P        0.50090    0.37650    0.75400    1.000
    O43      O        0.25138    0.39070    0.71830    1.000
    O44      O        0.22250    0.51640    0.58410    1.000
    O45      O        0.25912    0.63300    0.72710    1.000
    O46      O        0.33120    0.51080    0.67720    1.000
    O47      O        0.35174    0.30350    0.88720    1.000
    O48      O        0.36450    0.52800    0.49930    1.000
    O49      O        0.26295    0.63060    0.42860    1.000
    O50      O        0.15577    0.74270    0.46580    1.000
    O51      O        0.35232    0.18980    0.71470    1.000
    O52      O        0.14976    0.47560    0.39790    1.000
    O53      O        0.36790    0.25920    0.57580    1.000
    O54      O        0.26652    0.18720    0.57400    1.000
    O55      O        0.45860    0.45780    0.68090    1.000
    O56      O        0.46580    0.28390    0.79260    1.000
    P20      P        0.01750    0.91300    0.71120    1.000
    Ga5      Ga       0.70201    0.90917    0.97551    1.000
    Zn9      Zn       0.87743    0.05671    0.10908    1.000
    Zn10     Zn       0.80206    0.24612    0.27756    1.000
    P21      P        0.76664    0.98730    0.17545    1.000
    P22      P        0.83073    0.15282    0.46332    1.000
    P23      P        0.83416    0.33448    0.11630    1.000
    P24      P        0.00090    0.12350    0.25400    1.000
    O57      O        0.75138    0.10930    0.21830    1.000
    O58      O        0.72250    0.98360    0.08410    1.000
    O59      O        0.75912    0.86700    0.22710    1.000
    O60      O        0.83120    0.98920    0.17720    1.000
    O61      O        0.85174    0.19650    0.38720    1.000
    O62      O        0.86450    0.97200    0.99930    1.000
    O63      O        0.76295    0.86940    0.92860    1.000
    O64      O        0.65577    0.75730    0.96580    1.000
    O65      O        0.85232    0.31020    0.21470    1.000
    O66      O        0.64976    0.02440    0.89790    1.000
    O67      O        0.86790    0.24080    0.07580    1.000
    O68      O        0.76652    0.31280    0.07400    1.000
    O69      O        0.95860    0.04220    0.18090    1.000
    O70      O        0.96580    0.21610    0.29260    1.000
    P25      P        0.51750    0.58700    0.21120    1.000
    Ga6      Ga       0.20201    0.40917    0.97551    1.000
    Zn11     Zn       0.37743    0.55671    0.10908    1.000
    Zn12     Zn       0.30206    0.74612    0.27756    1.000
    P26      P        0.26664    0.48730    0.17545    1.000
    P27      P        0.33073    0.65282    0.46332    1.000
    P28      P        0.33416    0.83448    0.11630    1.000
    P29      P        0.50090    0.62350    0.25400    1.000
    O71      O        0.25138    0.60930    0.21830    1.000
    O72      O        0.22250    0.48360    0.08410    1.000
    O73      O        0.25912    0.36700    0.22710    1.000
    O74      O        0.33120    0.48920    0.17720    1.000
    O75      O        0.35174    0.69650    0.38720    1.000
    O76      O        0.36450    0.47200    0.99930    1.000
    O77      O        0.26295    0.36940    0.92860    1.000
    O78      O        0.15577    0.25730    0.96580    1.000
    O79      O        0.35232    0.81020    0.21470    1.000
    O80      O        0.14976    0.52440    0.89790    1.000
    O81      O        0.36790    0.74080    0.07580    1.000
    O82      O        0.26652    0.81280    0.07400    1.000
    O83      O        0.45860    0.54220    0.18090    1.000
    O84      O        0.46580    0.71610    0.29260    1.000
    P30      P        0.01750    0.08700    0.21120    1.000
    Ga7      Ga       0.29799    0.90917    0.52449    1.000
    Zn13     Zn       0.12257    0.05671    0.39092    1.000
    Zn14     Zn       0.19794    0.24612    0.22244    1.000
    P31      P        0.23336    0.98730    0.32455    1.000
    P32      P        0.16927    0.15282    0.03668    1.000
    P33      P        0.16584    0.33448    0.38370    1.000
    P34      P        0.99910    0.12350    0.24600    1.000
    O85      O        0.24862    0.10930    0.28170    1.000
    O86      O        0.27750    0.98360    0.41590    1.000
    O87      O        0.24088    0.86700    0.27290    1.000
    O88      O        0.16880    0.98920    0.32280    1.000
    O89      O        0.14826    0.19650    0.11280    1.000
    O90      O        0.13550    0.97200    0.50070    1.000
    O91      O        0.23705    0.86940    0.57140    1.000
    O92      O        0.34423    0.75730    0.53420    1.000
    O93      O        0.14768    0.31020    0.28530    1.000
    O94      O        0.35024    0.02440    0.60210    1.000
    O95      O        0.13210    0.24080    0.42420    1.000
    O96      O        0.23348    0.31280    0.42600    1.000
    O97      O        0.04140    0.04220    0.31910    1.000
    O98      O        0.03420    0.21610    0.20740    1.000
    P35      P        0.48250    0.58700    0.28880    1.000
    Ga8      Ga       0.79799    0.40917    0.52449    1.000
    Zn15     Zn       0.62257    0.55671    0.39092    1.000
    Zn16     Zn       0.69794    0.74612    0.22244    1.000
    P36      P        0.73336    0.48730    0.32455    1.000
    P37      P        0.66927    0.65282    0.03668    1.000
    P38      P        0.66584    0.83448    0.38370    1.000
    P39      P        0.49910    0.62350    0.24600    1.000
    O99      O        0.74862    0.60930    0.28170    1.000
    O100     O        0.77750    0.48360    0.41590    1.000
    O101     O        0.74088    0.36700    0.27290    1.000
    O102     O        0.66880    0.48920    0.32280    1.000
    O103     O        0.64826    0.69650    0.11280    1.000
    O104     O        0.63550    0.47200    0.50070    1.000
    O105     O        0.73705    0.36940    0.57140    1.000
    O106     O        0.84423    0.25730    0.53420    1.000
    O107     O        0.64768    0.81020    0.28530    1.000
    O108     O        0.85024    0.52440    0.60210    1.000
    O109     O        0.63210    0.74080    0.42420    1.000
    O110     O        0.73348    0.81280    0.42600    1.000
    O111     O        0.54140    0.54220    0.31910    1.000
    O112     O        0.53420    0.71610    0.20740    1.000
    P40      P        0.98250    0.08700    0.28880    1.000
