# CIF file generated by openbabel 3.1.0, see https://openbabel.org
data_I
_chemical_name_common 'image0'
_cell_length_a 13.4678
_cell_length_b 13.4678
_cell_length_c 18.3171
_cell_angle_alpha 90
_cell_angle_beta 90
_cell_angle_gamma 120
_space_group_name_H-M_alt 'P 1'
_space_group_name_Hall 'P 1'
loop_
    _symmetry_equiv_pos_as_xyz
    x,y,z
loop_
    _atom_site_label
    _atom_site_type_symbol
    _atom_site_fract_x
    _atom_site_fract_y
    _atom_site_fract_z
    _atom_site_occupancy
    V1       V        0.43529    0.14332    0.45823    1.000
    P1       P        0.18832    0.02928    0.37115    1.000
    H1       H        0.19300    0.93200    0.34700    1.000
    P2       P        0.49605    0.36972    0.55432    1.000
    H2       H        0.50100    0.31300    0.62000    1.000
    O1       O        0.30880    0.12400    0.39168    1.000
    O2       O        0.43310    0.28250    0.49394    1.000
    O3       O        0.61910    0.45330    0.53504    1.000
    O4       O        0.42850    0.42750    0.57650    1.000
    O5       O        0.55290    0.22760    0.38396    1.000
    O6       O        0.11150    0.97860    0.43833    1.000
    O7       O        0.14110    0.07480    0.31273    1.000
    V2       V        0.85668    0.29197    0.45823    1.000
    P3       P        0.97072    0.15904    0.37115    1.000
    H3       H        0.06800    0.26100    0.34700    1.000
    P4       P        0.63028    0.12633    0.55432    1.000
    H4       H        0.68700    0.18800    0.62000    1.000
    O8       O        0.87600    0.18480    0.39168    1.000
    O9       O        0.71750    0.15060    0.49394    1.000
    O10      O        0.54670    0.16580    0.53504    1.000
    O11      O        0.57250    0.00100    0.57650    1.000
    O12      O        0.77240    0.32530    0.38396    1.000
    O13      O        0.02140    0.13290    0.43833    1.000
    O14      O        0.92520    0.06630    0.31273    1.000
    V3       V        0.70803    0.56471    0.45823    1.000
    P5       P        0.84096    0.81168    0.37115    1.000
    H5       H        0.73900    0.80700    0.34700    1.000
    P6       P        0.87367    0.50395    0.55432    1.000
    H6       H        0.81200    0.49900    0.62000    1.000
    O15      O        0.81520    0.69120    0.39168    1.000
    O16      O        0.84940    0.56690    0.49394    1.000
    O17      O        0.83420    0.38090    0.53504    1.000
    O18      O        0.99900    0.57150    0.57650    1.000
    O19      O        0.67470    0.44710    0.38396    1.000
    O20      O        0.86710    0.88850    0.43833    1.000
    O21      O        0.93370    0.85890    0.31273    1.000
    V4       V        0.14332    0.43529    0.04177    1.000
    P7       P        0.02928    0.18832    0.12885    1.000
    H7       H        0.93200    0.19300    0.15300    1.000
    P8       P        0.36972    0.49605    0.94568    1.000
    H8       H        0.31300    0.50100    0.88000    1.000
    O22      O        0.12400    0.30880    0.10832    1.000
    O23      O        0.28250    0.43310    0.00606    1.000
    O24      O        0.45330    0.61910    0.96496    1.000
    O25      O        0.42750    0.42850    0.92350    1.000
    O26      O        0.22760    0.55290    0.11604    1.000
    O27      O        0.97860    0.11150    0.06167    1.000
    O28      O        0.07480    0.14110    0.18727    1.000
    V5       V        0.29197    0.85668    0.04177    1.000
    P9       P        0.15904    0.97072    0.12885    1.000
    H9       H        0.26100    0.06800    0.15300    1.000
    P10      P        0.12633    0.63028    0.94568    1.000
    H10      H        0.18800    0.68700    0.88000    1.000
    O29      O        0.18480    0.87600    0.10832    1.000
    O30      O        0.15060    0.71750    0.00606    1.000
    O31      O        0.16580    0.54670    0.96496    1.000
    O32      O        0.00100    0.57250    0.92350    1.000
    O33      O        0.32530    0.77240    0.11604    1.000
    O34      O        0.13290    0.02140    0.06167    1.000
    O35      O        0.06630    0.92520    0.18727    1.000
    V6       V        0.56471    0.70803    0.04177    1.000
    P11      P        0.81168    0.84096    0.12885    1.000
    H11      H        0.80700    0.73900    0.15300    1.000
    P12      P        0.50395    0.87367    0.94568    1.000
    H12      H        0.49900    0.81200    0.88000    1.000
    O36      O        0.69120    0.81520    0.10832    1.000
    O37      O        0.56690    0.84940    0.00606    1.000
    O38      O        0.38090    0.83420    0.96496    1.000
    O39      O        0.57150    0.99900    0.92350    1.000
    O40      O        0.44710    0.67470    0.11604    1.000
    O41      O        0.88850    0.86710    0.06167    1.000
    O42      O        0.85890    0.93370    0.18727    1.000
    V7       V        0.56471    0.85668    0.54177    1.000
    P13      P        0.81168    0.97072    0.62885    1.000
    H13      H        0.80700    0.06800    0.65300    1.000
    P14      P        0.50395    0.63028    0.44568    1.000
    H14      H        0.49900    0.68700    0.38000    1.000
    O43      O        0.69120    0.87600    0.60832    1.000
    O44      O        0.56690    0.71750    0.50606    1.000
    O45      O        0.38090    0.54670    0.46496    1.000
    O46      O        0.57150    0.57250    0.42350    1.000
    O47      O        0.44710    0.77240    0.61604    1.000
    O48      O        0.88850    0.02140    0.56167    1.000
    O49      O        0.85890    0.92520    0.68727    1.000
    V8       V        0.14332    0.70803    0.54177    1.000
    P15      P        0.02928    0.84096    0.62885    1.000
    H15      H        0.93200    0.73900    0.65300    1.000
    P16      P        0.36972    0.87367    0.44568    1.000
    H16      H        0.31300    0.81200    0.38000    1.000
    O50      O        0.12400    0.81520    0.60832    1.000
    O51      O        0.28250    0.84940    0.50606    1.000
    O52      O        0.45330    0.83420    0.46496    1.000
    O53      O        0.42750    0.99900    0.42350    1.000
    O54      O        0.22760    0.67470    0.61604    1.000
    O55      O        0.97860    0.86710    0.56167    1.000
    O56      O        0.07480    0.93370    0.68727    1.000
    V9       V        0.29197    0.43529    0.54177    1.000
    P17      P        0.15904    0.18832    0.62885    1.000
    H17      H        0.26100    0.19300    0.65300    1.000
    P18      P        0.12633    0.49605    0.44568    1.000
    H18      H        0.18800    0.50100    0.38000    1.000
    O57      O        0.18480    0.30880    0.60832    1.000
    O58      O        0.15060    0.43310    0.50606    1.000
    O59      O        0.16580    0.61910    0.46496    1.000
    O60      O        0.00100    0.42850    0.42350    1.000
    O61      O        0.32530    0.55290    0.61604    1.000
    O62      O        0.13290    0.11150    0.56167    1.000
    O63      O        0.06630    0.14110    0.68727    1.000
    V10      V        0.85668    0.56471    0.95823    1.000
    P19      P        0.97072    0.81168    0.87115    1.000
    H19      H        0.06800    0.80700    0.84700    1.000
    P20      P        0.63028    0.50395    0.05432    1.000
    H20      H        0.68700    0.49900    0.12000    1.000
    O64      O        0.87600    0.69120    0.89168    1.000
    O65      O        0.71750    0.56690    0.99394    1.000
    O66      O        0.54670    0.38090    0.03504    1.000
    O67      O        0.57250    0.57150    0.07650    1.000
    O68      O        0.77240    0.44710    0.88396    1.000
    O69      O        0.02140    0.88850    0.93833    1.000
    O70      O        0.92520    0.85890    0.81273    1.000
    V11      V        0.70803    0.14332    0.95823    1.000
    P21      P        0.84096    0.02928    0.87115    1.000
    H21      H        0.73900    0.93200    0.84700    1.000
    P22      P        0.87367    0.36972    0.05432    1.000
    H22      H        0.81200    0.31300    0.12000    1.000
    O71      O        0.81520    0.12400    0.89168    1.000
    O72      O        0.84940    0.28250    0.99394    1.000
    O73      O        0.83420    0.45330    0.03504    1.000
    O74      O        0.99900    0.42750    0.07650    1.000
    O75      O        0.67470    0.22760    0.88396    1.000
    O76      O        0.86710    0.97860    0.93833    1.000
    O77      O        0.93370    0.07480    0.81273    1.000
    V12      V        0.43529    0.29197    0.95823    1.000
    P23      P        0.18832    0.15904    0.87115    1.000
    H23      H        0.19300    0.26100    0.84700    1.000
    P24      P        0.49605    0.12633    0.05432    1.000
    H24      H        0.50100    0.18800    0.12000    1.000
    O78      O        0.30880    0.18480    0.89168    1.000
    O79      O        0.43310    0.15060    0.99394    1.000
    O80      O        0.61910    0.16580    0.03504    1.000
    O81      O        0.42850    0.00100    0.07650    1.000
    O82      O        0.55290    0.32530    0.88396    1.000
    O83      O        0.11150    0.13290    0.93833    1.000
    O84      O        0.14110    0.06630    0.81273    1.000
    V13      V        0.00000    0.00000    0.50000    1.000
    V14      V        0.00000    0.00000    0.00000    1.000
    V15      V        0.00000    0.00000    0.25000    1.000
    V16      V        0.00000    0.00000    0.75000    1.000
    P25      P        0.66667    0.33333    0.36331    1.000
    H25      H        0.66667    0.33333    0.29123    1.000
    P26      P        0.33333    0.66667    0.13669    1.000
    H26      H        0.33333    0.66667    0.20877    1.000
    P27      P        0.33333    0.66667    0.63669    1.000
    H27      H        0.33333    0.66667    0.70877    1.000
    P28      P        0.66667    0.33333    0.86331    1.000
    H28      H        0.66667    0.33333    0.79123    1.000
