# CIF file generated by openbabel 3.1.0, see https://openbabel.org
data_I
_chemical_name_common 'image0'
_cell_length_a 13.5642
_cell_length_b 13.5642
_cell_length_c 15.6425
_cell_angle_alpha 90
_cell_angle_beta 90
_cell_angle_gamma 90
_space_group_name_H-M_alt 'P 1'
_space_group_name_Hall 'P 1'
loop_
    _symmetry_equiv_pos_as_xyz
    x,y,z
loop_
    _atom_site_label
    _atom_site_type_symbol
    _atom_site_fract_x
    _atom_site_fract_y
    _atom_site_fract_z
    _atom_site_occupancy
    S1       S        0.72360    0.78470    0.89210    1.000
    O1       O        0.62100    0.95130    0.98550    1.000
    O2       O        0.52720    0.99700    0.87860    1.000
    O3       O        0.80740    0.60660    0.70850    1.000
    O4       O        0.85230    0.61430    0.84220    1.000
    C1       C        0.79890    0.64450    0.78240    1.000
    C2       C        0.59380    0.94210    0.91000    1.000
    C3       C        0.63680    0.86480    0.85430    1.000
    C4       C        0.73090    0.72700    0.79490    1.000
    C5       C        0.66780    0.76580    0.73720    1.000
    H1       H        0.65980    0.74210    0.68180    1.000
    C6       C        0.61550    0.84710    0.77130    1.000
    H2       H        0.57090    0.88450    0.73980    1.000
    S2       S        0.27640    0.21530    0.39210    1.000
    O5       O        0.37900    0.04870    0.48550    1.000
    O6       O        0.47280    0.00300    0.37860    1.000
    O7       O        0.19260    0.39340    0.20850    1.000
    O8       O        0.14770    0.38570    0.34220    1.000
    C7       C        0.20110    0.35550    0.28240    1.000
    C8       C        0.40620    0.05790    0.41000    1.000
    C9       C        0.36320    0.13520    0.35430    1.000
    C10      C        0.26910    0.27300    0.29490    1.000
    C11      C        0.33220    0.23420    0.23720    1.000
    H3       H        0.34020    0.25790    0.18180    1.000
    C12      C        0.38450    0.15290    0.27130    1.000
    H4       H        0.42910    0.11550    0.23980    1.000
    S3       S        0.21530    0.72360    0.64210    1.000
    O9       O        0.04870    0.62100    0.73550    1.000
    O10      O        0.00300    0.52720    0.62860    1.000
    O11      O        0.39340    0.80740    0.45850    1.000
    O12      O        0.38570    0.85230    0.59220    1.000
    C13      C        0.35550    0.79890    0.53240    1.000
    C14      C        0.05790    0.59380    0.66000    1.000
    C15      C        0.13520    0.63680    0.60430    1.000
    C16      C        0.27300    0.73090    0.54490    1.000
    C17      C        0.23420    0.66780    0.48720    1.000
    H5       H        0.25790    0.65980    0.43180    1.000
    C18      C        0.15290    0.61550    0.52130    1.000
    H6       H        0.11550    0.57090    0.48980    1.000
    S4       S        0.78470    0.27640    0.14210    1.000
    O13      O        0.95130    0.37900    0.23550    1.000
    O14      O        0.99700    0.47280    0.12860    1.000
    O15      O        0.60660    0.19260    0.95850    1.000
    O16      O        0.61430    0.14770    0.09220    1.000
    C19      C        0.64450    0.20110    0.03240    1.000
    C20      C        0.94210    0.40620    0.16000    1.000
    C21      C        0.86480    0.36320    0.10430    1.000
    C22      C        0.72700    0.26910    0.04490    1.000
    C23      C        0.76580    0.33220    0.98720    1.000
    H7       H        0.74210    0.34020    0.93180    1.000
    C24      C        0.84710    0.38450    0.02130    1.000
    H8       H        0.88450    0.42910    0.98980    1.000
    S5       S        0.27640    0.78470    0.10790    1.000
    O17      O        0.37900    0.95130    0.01450    1.000
    O18      O        0.47280    0.99700    0.12140    1.000
    O19      O        0.19260    0.60660    0.29150    1.000
    O20      O        0.14770    0.61430    0.15780    1.000
    C25      C        0.20110    0.64450    0.21760    1.000
    C26      C        0.40620    0.94210    0.09000    1.000
    C27      C        0.36320    0.86480    0.14570    1.000
    C28      C        0.26910    0.72700    0.20510    1.000
    C29      C        0.33220    0.76580    0.26280    1.000
    H9       H        0.34020    0.74210    0.31820    1.000
    C30      C        0.38450    0.84710    0.22870    1.000
    H10      H        0.42910    0.88450    0.26020    1.000
    S6       S        0.72360    0.21530    0.60790    1.000
    O21      O        0.62100    0.04870    0.51450    1.000
    O22      O        0.52720    0.00300    0.62140    1.000
    O23      O        0.80740    0.39340    0.79150    1.000
    O24      O        0.85230    0.38570    0.65780    1.000
    C31      C        0.79890    0.35550    0.71760    1.000
    C32      C        0.59380    0.05790    0.59000    1.000
    C33      C        0.63680    0.13520    0.64570    1.000
    C34      C        0.73090    0.27300    0.70510    1.000
    C35      C        0.66780    0.23420    0.76280    1.000
    H11      H        0.65980    0.25790    0.81820    1.000
    C36      C        0.61550    0.15290    0.72870    1.000
    H12      H        0.57090    0.11550    0.76020    1.000
    S7       S        0.78470    0.72360    0.35790    1.000
    O25      O        0.95130    0.62100    0.26450    1.000
    O26      O        0.99700    0.52720    0.37140    1.000
    O27      O        0.60660    0.80740    0.54150    1.000
    O28      O        0.61430    0.85230    0.40780    1.000
    C37      C        0.64450    0.79890    0.46760    1.000
    C38      C        0.94210    0.59380    0.34000    1.000
    C39      C        0.86480    0.63680    0.39570    1.000
    C40      C        0.72700    0.73090    0.45510    1.000
    C41      C        0.76580    0.66780    0.51280    1.000
    H13      H        0.74210    0.65980    0.56820    1.000
    C42      C        0.84710    0.61550    0.47870    1.000
    H14      H        0.88450    0.57090    0.51020    1.000
    S8       S        0.21530    0.27640    0.85790    1.000
    O29      O        0.04870    0.37900    0.76450    1.000
    O30      O        0.00300    0.47280    0.87140    1.000
    O31      O        0.39340    0.19260    0.04150    1.000
    O32      O        0.38570    0.14770    0.90780    1.000
    C43      C        0.35550    0.20110    0.96760    1.000
    C44      C        0.05790    0.40620    0.84000    1.000
    C45      C        0.13520    0.36320    0.89570    1.000
    C46      C        0.27300    0.26910    0.95510    1.000
    C47      C        0.23420    0.33220    0.01280    1.000
    H15      H        0.25790    0.34020    0.06820    1.000
    C48      C        0.15290    0.38450    0.97870    1.000
    H16      H        0.11550    0.42910    0.01020    1.000
    In1      In       0.50000    0.07660    0.00000    1.000
    In2      In       0.50000    0.92340    0.50000    1.000
    In3      In       0.92340    0.50000    0.75000    1.000
    In4      In       0.07660    0.50000    0.25000    1.000
