# CIF file generated by openbabel 3.1.0, see https://openbabel.org
data_I
_chemical_name_common 'image0'
_cell_length_a 17.2931
_cell_length_b 10.0521
_cell_length_c 17.6583
_cell_angle_alpha 90
_cell_angle_beta 90
_cell_angle_gamma 90
_space_group_name_H-M_alt 'P 1'
_space_group_name_Hall 'P 1'
loop_
    _symmetry_equiv_pos_as_xyz
    x,y,z
loop_
    _atom_site_label
    _atom_site_type_symbol
    _atom_site_fract_x
    _atom_site_fract_y
    _atom_site_fract_z
    _atom_site_occupancy
    Ho1      Ho       0.47915    0.15931    0.88311    1.000
    Ho2      Ho       0.67815    0.38708    0.89844    1.000
    S1       S        0.53870    0.54065    0.13349    1.000
    S2       S        0.70145    0.09177    0.14625    1.000
    S3       S        0.61068    0.02148    0.64753    1.000
    C1       C        0.51270    0.40870    0.99820    1.000
    O1       O        0.58220    0.43300    0.98650    1.000
    O2       O        0.42280    0.60500    0.32010    1.000
    O3       O        0.74900    0.96250    0.29370    1.000
    O4       O        0.69830    0.23050    0.99540    1.000
    O5       O        0.57720    0.11770    0.79690    1.000
    O6       O        0.46630    0.34880    0.95380    1.000
    C2       C        0.67550    0.09580    0.70790    1.000
    C3       C        0.48000    0.45340    0.07220    1.000
    O7       O        0.69500    0.19460    0.82720    1.000
    C4       C        0.57340    0.99740    0.09550    1.000
    H1       H        0.53130    0.97970    0.06430    1.000
    C5       C        0.68000    0.00730    0.57860    1.000
    C6       C        0.40860    0.43170    0.10150    1.000
    H2       H        0.36970    0.38590    0.07610    1.000
    C7       C        0.46590    0.54770    0.19910    1.000
    C8       C        0.75010    0.05590    0.60210    1.000
    H3       H        0.79440    0.05520    0.57240    1.000
    O8       O        0.71490    0.95090    0.45630    1.000
    O9       O        0.58430    0.15250    0.95870    1.000
    C9       C        0.58410    0.94000    0.16770    1.000
    H4       H        0.54970    0.87990    0.18950    1.000
    O10      O        0.53720    0.67940    0.28480    1.000
    C10      C        0.65080    0.98270    0.20210    1.000
    C11      C        0.63240    0.08240    0.07680    1.000
    C12      C        0.63930    0.15980    0.00580    1.000
    C13      C        0.64680    0.13870    0.78290    1.000
    C14      C        0.74760    0.10710    0.67650    1.000
    H5       H        0.78990    0.14420    0.70120    1.000
    C15      C        0.39970    0.48610    0.17460    1.000
    H6       H        0.35440    0.48080    0.20280    1.000
    C16      C        0.67950    0.93970    0.27780    1.000
    C17      C        0.47750    0.61430    0.27300    1.000
    O11      O        0.59200    0.91820    0.48930    1.000
    O12      O        0.63200    0.88230    0.32060    1.000
    C18      C        0.66060    0.95200    0.50310    1.000
    Ho3      Ho       0.52085    0.84069    0.38311    1.000
    Ho4      Ho       0.32185    0.61292    0.39844    1.000
    S4       S        0.46130    0.45935    0.63349    1.000
    S5       S        0.29855    0.90823    0.64625    1.000
    S6       S        0.38932    0.97852    0.14753    1.000
    C19      C        0.48730    0.59130    0.49820    1.000
    O13      O        0.41780    0.56700    0.48650    1.000
    O14      O        0.57720    0.39500    0.82010    1.000
    O15      O        0.25100    0.03750    0.79370    1.000
    O16      O        0.30170    0.76950    0.49540    1.000
    O17      O        0.42280    0.88230    0.29690    1.000
    O18      O        0.53370    0.65120    0.45380    1.000
    C20      C        0.32450    0.90420    0.20790    1.000
    C21      C        0.52000    0.54660    0.57220    1.000
    O19      O        0.30500    0.80540    0.32720    1.000
    C22      C        0.42660    0.00260    0.59550    1.000
    H7       H        0.46870    0.02030    0.56430    1.000
    C23      C        0.32000    0.99270    0.07860    1.000
    C24      C        0.59140    0.56830    0.60150    1.000
    H8       H        0.63030    0.61410    0.57610    1.000
    C25      C        0.53410    0.45230    0.69910    1.000
    C26      C        0.24990    0.94410    0.10210    1.000
    H9       H        0.20560    0.94480    0.07240    1.000
    O20      O        0.28510    0.04910    0.95630    1.000
    O21      O        0.41570    0.84750    0.45870    1.000
    C27      C        0.41590    0.06000    0.66770    1.000
    H10      H        0.45030    0.12010    0.68950    1.000
    O22      O        0.46280    0.32060    0.78480    1.000
    C28      C        0.34920    0.01730    0.70210    1.000
    C29      C        0.36760    0.91760    0.57680    1.000
    C30      C        0.36070    0.84020    0.50580    1.000
    C31      C        0.35320    0.86130    0.28290    1.000
    C32      C        0.25240    0.89290    0.17650    1.000
    H11      H        0.21010    0.85580    0.20120    1.000
    C33      C        0.60030    0.51390    0.67460    1.000
    H12      H        0.64560    0.51920    0.70280    1.000
    C34      C        0.32050    0.06030    0.77780    1.000
    C35      C        0.52250    0.38570    0.77300    1.000
    O23      O        0.40800    0.08180    0.98930    1.000
    O24      O        0.36800    0.11770    0.82060    1.000
    C36      C        0.33940    0.04800    0.00310    1.000
    Ho5      Ho       0.97915    0.34069    0.88311    1.000
    Ho6      Ho       0.17815    0.11292    0.89844    1.000
    S7       S        0.03870    0.95935    0.13349    1.000
    S8       S        0.20145    0.40823    0.14625    1.000
    S9       S        0.11068    0.47852    0.64753    1.000
    C37      C        0.01270    0.09130    0.99820    1.000
    O25      O        0.08220    0.06700    0.98650    1.000
    O26      O        0.92280    0.89500    0.32010    1.000
    O27      O        0.24900    0.53750    0.29370    1.000
    O28      O        0.19830    0.26950    0.99540    1.000
    O29      O        0.07720    0.38230    0.79690    1.000
    O30      O        0.96630    0.15120    0.95380    1.000
    C38      C        0.17550    0.40420    0.70790    1.000
    C39      C        0.98000    0.04660    0.07220    1.000
    O31      O        0.19500    0.30540    0.82720    1.000
    C40      C        0.07340    0.50260    0.09550    1.000
    H13      H        0.03130    0.52030    0.06430    1.000
    C41      C        0.18000    0.49270    0.57860    1.000
    C42      C        0.90860    0.06830    0.10150    1.000
    H14      H        0.86970    0.11410    0.07610    1.000
    C43      C        0.96590    0.95230    0.19910    1.000
    C44      C        0.25010    0.44410    0.60210    1.000
    H15      H        0.29440    0.44480    0.57240    1.000
    O32      O        0.21490    0.54910    0.45630    1.000
    O33      O        0.08430    0.34750    0.95870    1.000
    C45      C        0.08410    0.56000    0.16770    1.000
    H16      H        0.04970    0.62010    0.18950    1.000
    O34      O        0.03720    0.82060    0.28480    1.000
    C46      C        0.15080    0.51730    0.20210    1.000
    C47      C        0.13240    0.41760    0.07680    1.000
    C48      C        0.13930    0.34020    0.00580    1.000
    C49      C        0.14680    0.36130    0.78290    1.000
    C50      C        0.24760    0.39290    0.67650    1.000
    H17      H        0.28990    0.35580    0.70120    1.000
    C51      C        0.89970    0.01390    0.17460    1.000
    H18      H        0.85440    0.01920    0.20280    1.000
    C52      C        0.17950    0.56030    0.27780    1.000
    C53      C        0.97750    0.88570    0.27300    1.000
    O35      O        0.09200    0.58180    0.48930    1.000
    O36      O        0.13200    0.61770    0.32060    1.000
    C54      C        0.16060    0.54800    0.50310    1.000
    Ho7      Ho       0.02085    0.65931    0.38311    1.000
    Ho8      Ho       0.82185    0.88708    0.39844    1.000
    S10      S        0.96130    0.04065    0.63349    1.000
    S11      S        0.79855    0.59177    0.64625    1.000
    S12      S        0.88932    0.52148    0.14753    1.000
    C55      C        0.98730    0.90870    0.49820    1.000
    O37      O        0.91780    0.93300    0.48650    1.000
    O38      O        0.07720    0.10500    0.82010    1.000
    O39      O        0.75100    0.46250    0.79370    1.000
    O40      O        0.80170    0.73050    0.49540    1.000
    O41      O        0.92280    0.61770    0.29690    1.000
    O42      O        0.03370    0.84880    0.45380    1.000
    C56      C        0.82450    0.59580    0.20790    1.000
    C57      C        0.02000    0.95340    0.57220    1.000
    O43      O        0.80500    0.69460    0.32720    1.000
    C58      C        0.92660    0.49740    0.59550    1.000
    H19      H        0.96870    0.47970    0.56430    1.000
    C59      C        0.82000    0.50730    0.07860    1.000
    C60      C        0.09140    0.93170    0.60150    1.000
    H20      H        0.13030    0.88590    0.57610    1.000
    C61      C        0.03410    0.04770    0.69910    1.000
    C62      C        0.74990    0.55590    0.10210    1.000
    H21      H        0.70560    0.55520    0.07240    1.000
    O44      O        0.78510    0.45090    0.95630    1.000
    O45      O        0.91570    0.65250    0.45870    1.000
    C63      C        0.91590    0.44000    0.66770    1.000
    H22      H        0.95030    0.37990    0.68950    1.000
    O46      O        0.96280    0.17940    0.78480    1.000
    C64      C        0.84920    0.48270    0.70210    1.000
    C65      C        0.86760    0.58240    0.57680    1.000
    C66      C        0.86070    0.65980    0.50580    1.000
    C67      C        0.85320    0.63870    0.28290    1.000
    C68      C        0.75240    0.60710    0.17650    1.000
    H23      H        0.71010    0.64420    0.20120    1.000
    C69      C        0.10030    0.98610    0.67460    1.000
    H24      H        0.14560    0.98080    0.70280    1.000
    C70      C        0.82050    0.43970    0.77780    1.000
    C71      C        0.02250    0.11430    0.77300    1.000
    O47      O        0.90800    0.41820    0.98930    1.000
    O48      O        0.86800    0.38230    0.82060    1.000
    C72      C        0.83940    0.45200    0.00310    1.000
