# CIF file generated by openbabel 3.1.0, see https://openbabel.org
data_I
_chemical_name_common 'NIGGAM_clean'
_cell_length_a 10.9051
_cell_length_b 10.9051
_cell_length_c 19.698
_cell_angle_alpha 75.6385
_cell_angle_beta 75.6385
_cell_angle_gamma 64.5543
_space_group_name_H-M_alt 'P 1'
_space_group_name_Hall 'P 1'
loop_
    _symmetry_equiv_pos_as_xyz
    x,y,z
loop_
    _atom_site_label
    _atom_site_type_symbol
    _atom_site_fract_x
    _atom_site_fract_y
    _atom_site_fract_z
    _atom_site_occupancy
    Ho1      Ho       0.25461    0.59547    0.08316    1.000
    Ho2      Ho       0.40453    0.74539    0.41684    1.000
    Ho3      Ho       0.74539    0.40453    0.91684    1.000
    Ho4      Ho       0.59547    0.25461    0.58316    1.000
    H1       H        0.48080    0.65740    0.17310    1.000
    H2       H        0.79630    0.69110    0.22380    1.000
    H3       H        0.83160    0.59960    0.03290    1.000
    H4       H        0.34260    0.51920    0.32690    1.000
    H5       H        0.30890    0.20370    0.27620    1.000
    H6       H        0.40040    0.16840    0.46710    1.000
    H7       H        0.51920    0.34260    0.82690    1.000
    H8       H        0.20370    0.30890    0.77620    1.000
    H9       H        0.16840    0.40040    0.96710    1.000
    H10      H        0.65740    0.48080    0.67310    1.000
    H11      H        0.69110    0.79630    0.72380    1.000
    H12      H        0.59960    0.83160    0.53290    1.000
    C1       C        0.98250    0.63390    0.10830    1.000
    C2       C        0.54560    0.70300    0.28250    1.000
    C3       C        0.58600    0.59400    0.04380    1.000
    C4       C        0.64500    0.62240    0.09450    1.000
    C5       C        0.57040    0.65340    0.16100    1.000
    C6       C        0.62710    0.67830    0.21010    1.000
    C7       C        0.75810    0.67410    0.19170    1.000
    C8       C        0.83510    0.64490    0.12560    1.000
    C9       C        0.77990    0.61910    0.07700    1.000
    C10      C        0.36610    0.01750    0.39170    1.000
    C11      C        0.29700    0.45440    0.21750    1.000
    C12      C        0.40600    0.41400    0.45620    1.000
    C13      C        0.37760    0.35500    0.40550    1.000
    C14      C        0.34660    0.42960    0.33900    1.000
    C15      C        0.32170    0.37290    0.28990    1.000
    C16      C        0.32590    0.24190    0.30830    1.000
    C17      C        0.35510    0.16490    0.37440    1.000
    C18      C        0.38090    0.22010    0.42300    1.000
    C19      C        0.01750    0.36610    0.89170    1.000
    C20      C        0.45440    0.29700    0.71750    1.000
    C21      C        0.41400    0.40600    0.95620    1.000
    C22      C        0.35500    0.37760    0.90550    1.000
    C23      C        0.42960    0.34660    0.83900    1.000
    C24      C        0.37290    0.32170    0.78990    1.000
    C25      C        0.24190    0.32590    0.80830    1.000
    C26      C        0.16490    0.35510    0.87440    1.000
    C27      C        0.22010    0.38090    0.92300    1.000
    C28      C        0.63390    0.98250    0.60830    1.000
    C29      C        0.70300    0.54560    0.78250    1.000
    C30      C        0.59400    0.58600    0.54380    1.000
    C31      C        0.62240    0.64500    0.59450    1.000
    C32      C        0.65340    0.57040    0.66100    1.000
    C33      C        0.67830    0.62710    0.71010    1.000
    C34      C        0.67410    0.75810    0.69170    1.000
    C35      C        0.64490    0.83510    0.62560    1.000
    C36      C        0.61910    0.77990    0.57700    1.000
    O1       O        0.05610    0.59430    0.05260    1.000
    O2       O        0.02680    0.66560    0.15080    1.000
    O3       O        0.60440    0.70620    0.32920    1.000
    O4       O        0.42280    0.71780    0.29650    1.000
    O5       O        0.47310    0.58030    0.06630    1.000
    O6       O        0.64940    0.58280    0.98180    1.000
    O7       O        0.40570    0.94390    0.44740    1.000
    O8       O        0.33440    0.97320    0.34920    1.000
    O9       O        0.29380    0.39560    0.17080    1.000
    O10      O        0.28220    0.57720    0.20350    1.000
    O11      O        0.41970    0.52690    0.43370    1.000
    O12      O        0.41720    0.35060    0.51820    1.000
    O13      O        0.94390    0.40570    0.94740    1.000
    O14      O        0.97320    0.33440    0.84920    1.000
    O15      O        0.39560    0.29380    0.67080    1.000
    O16      O        0.57720    0.28220    0.70350    1.000
    O17      O        0.52690    0.41970    0.93370    1.000
    O18      O        0.35060    0.41720    0.01820    1.000
    O19      O        0.59430    0.05610    0.55260    1.000
    O20      O        0.66560    0.02680    0.65080    1.000
    O21      O        0.70620    0.60440    0.82920    1.000
    O22      O        0.71780    0.42280    0.79650    1.000
    O23      O        0.58030    0.47310    0.56630    1.000
    O24      O        0.58280    0.64940    0.48180    1.000
