# CIF file generated by openbabel 3.1.0, see https://openbabel.org
data_I
_chemical_name_common 'image0'
_cell_length_a 7.038
_cell_length_b 23.12
_cell_length_c 20.675
_cell_angle_alpha 90
_cell_angle_beta 90
_cell_angle_gamma 90
_space_group_name_H-M_alt 'P 1'
_space_group_name_Hall 'P 1'
loop_
    _symmetry_equiv_pos_as_xyz
    x,y,z
loop_
    _atom_site_label
    _atom_site_type_symbol
    _atom_site_fract_x
    _atom_site_fract_y
    _atom_site_fract_z
    _atom_site_occupancy
    O1       O        0.33210    0.15030    0.95040    1.000
    O2       O        0.36400    0.32490    0.93410    1.000
    O3       O        0.41400    0.26510    0.96970    1.000
    C1       C        0.58800    0.03950    0.46550    1.000
    C2       C        0.40500    0.02020    0.54870    1.000
    O4       O        0.13300    0.38170    0.88280    1.000
    O5       O        0.83210    0.65030    0.95040    1.000
    O6       O        0.86400    0.82490    0.93410    1.000
    O7       O        0.91400    0.76510    0.96970    1.000
    C3       C        0.08800    0.53950    0.46550    1.000
    C4       C        0.90500    0.52020    0.54870    1.000
    O8       O        0.63300    0.88170    0.88280    1.000
    O9       O        0.66790    0.34970    0.45040    1.000
    O10      O        0.63600    0.17510    0.43410    1.000
    O11      O        0.58600    0.23490    0.46970    1.000
    C5       C        0.41200    0.46050    0.96550    1.000
    C6       C        0.59500    0.47980    0.04870    1.000
    O12      O        0.86700    0.11830    0.38280    1.000
    O13      O        0.16790    0.84970    0.45040    1.000
    O14      O        0.13600    0.67510    0.43410    1.000
    O15      O        0.08600    0.73490    0.46970    1.000
    C7       C        0.91200    0.96050    0.96550    1.000
    C8       C        0.09500    0.97980    0.04870    1.000
    O16      O        0.36700    0.61830    0.38280    1.000
    O17      O        0.66790    0.65030    0.54960    1.000
    O18      O        0.63600    0.82490    0.56590    1.000
    O19      O        0.58600    0.76510    0.53030    1.000
    C9       C        0.41200    0.53950    0.03450    1.000
    C10      C        0.59500    0.52020    0.95130    1.000
    O20      O        0.86700    0.88170    0.61720    1.000
    O21      O        0.16790    0.15030    0.54960    1.000
    O22      O        0.13600    0.32490    0.56590    1.000
    O23      O        0.08600    0.26510    0.53030    1.000
    C11      C        0.91200    0.03950    0.03450    1.000
    C12      C        0.09500    0.02020    0.95130    1.000
    O24      O        0.36700    0.38170    0.61720    1.000
    O25      O        0.33210    0.84970    0.04960    1.000
    O26      O        0.36400    0.67510    0.06590    1.000
    O27      O        0.41400    0.73490    0.03030    1.000
    C13      C        0.58800    0.96050    0.53450    1.000
    C14      C        0.40500    0.97980    0.45130    1.000
    O28      O        0.13300    0.61830    0.11720    1.000
    O29      O        0.83210    0.34970    0.04960    1.000
    O30      O        0.86400    0.17510    0.06590    1.000
    O31      O        0.91400    0.23490    0.03030    1.000
    C15      C        0.08800    0.46050    0.53450    1.000
    C16      C        0.90500    0.47980    0.45130    1.000
    O32      O        0.63300    0.11830    0.11720    1.000
    O33      O        0.66790    0.84970    0.04960    1.000
    O34      O        0.63600    0.67510    0.06590    1.000
    O35      O        0.58600    0.73490    0.03030    1.000
    C17      C        0.41200    0.96050    0.53450    1.000
    C18      C        0.59500    0.97980    0.45130    1.000
    O36      O        0.86700    0.61830    0.11720    1.000
    O37      O        0.16790    0.34970    0.04960    1.000
    O38      O        0.13600    0.17510    0.06590    1.000
    O39      O        0.08600    0.23490    0.03030    1.000
    C19      C        0.91200    0.46050    0.53450    1.000
    C20      C        0.09500    0.47980    0.45130    1.000
    O40      O        0.36700    0.11830    0.11720    1.000
    O41      O        0.33210    0.65030    0.54960    1.000
    O42      O        0.36400    0.82490    0.56590    1.000
    O43      O        0.41400    0.76510    0.53030    1.000
    C21      C        0.58800    0.53950    0.03450    1.000
    C22      C        0.40500    0.52020    0.95130    1.000
    O44      O        0.13300    0.88170    0.61720    1.000
    O45      O        0.83210    0.15030    0.54960    1.000
    O46      O        0.86400    0.32490    0.56590    1.000
    O47      O        0.91400    0.26510    0.53030    1.000
    C23      C        0.08800    0.03950    0.03450    1.000
    C24      C        0.90500    0.02020    0.95130    1.000
    O48      O        0.63300    0.38170    0.61720    1.000
    O49      O        0.33210    0.34970    0.45040    1.000
    O50      O        0.36400    0.17510    0.43410    1.000
    O51      O        0.41400    0.23490    0.46970    1.000
    C25      C        0.58800    0.46050    0.96550    1.000
    C26      C        0.40500    0.47980    0.04870    1.000
    O52      O        0.13300    0.11830    0.38280    1.000
    O53      O        0.83210    0.84970    0.45040    1.000
    O54      O        0.86400    0.67510    0.43410    1.000
    O55      O        0.91400    0.73490    0.46970    1.000
    C27      C        0.08800    0.96050    0.96550    1.000
    C28      C        0.90500    0.97980    0.04870    1.000
    O56      O        0.63300    0.61830    0.38280    1.000
    O57      O        0.66790    0.15030    0.95040    1.000
    O58      O        0.63600    0.32490    0.93410    1.000
    O59      O        0.58600    0.26510    0.96970    1.000
    C29      C        0.41200    0.03950    0.46550    1.000
    C30      C        0.59500    0.02020    0.54870    1.000
    O60      O        0.86700    0.38170    0.88280    1.000
    O61      O        0.16790    0.65030    0.95040    1.000
    O62      O        0.13600    0.82490    0.93410    1.000
    O63      O        0.08600    0.76510    0.96970    1.000
    C31      C        0.91200    0.53950    0.46550    1.000
    C32      C        0.09500    0.52020    0.54870    1.000
    O64      O        0.36700    0.88170    0.88280    1.000
    Cd1      Cd       0.50000    0.15649    0.54015    1.000
    S1       S        0.50000    0.14191    0.90962    1.000
    C33      C        0.50000    0.17660    0.78380    1.000
    H1       H        0.50000    0.13660    0.77550    1.000
    C34      C        0.50000    0.21480    0.73230    1.000
    O65      O        0.50000    0.13970    0.65420    1.000
    O66      O        0.50000    0.22870    0.61770    1.000
    C35      C        0.50000    0.19270    0.66370    1.000
    N1       N        0.50000    0.05840    0.51480    1.000
    C36      C        0.50000    0.19560    0.84720    1.000
    C37      C        0.50000    0.25490    0.85910    1.000
    C38      C        0.50000    0.28440    0.92520    1.000
    C39      C        0.50000    0.27320    0.74420    1.000
    H2       H        0.50000    0.29940    0.70950    1.000
    C40      C        0.50000    0.29310    0.80620    1.000
    H3       H        0.50000    0.33320    0.81380    1.000
    O67      O        0.50000    0.08870    0.87840    1.000
    Na1      Na       0.50000    0.30910    0.55040    1.000
    O68      O        0.50000    0.39260    0.61600    1.000
    Cd2      Cd       0.00000    0.65649    0.54015    1.000
    S2       S        0.00000    0.64191    0.90962    1.000
    C41      C        0.00000    0.67660    0.78380    1.000
    H4       H        0.00000    0.63660    0.77550    1.000
    C42      C        0.00000    0.71480    0.73230    1.000
    O69      O        0.00000    0.63970    0.65420    1.000
    O70      O        0.00000    0.72870    0.61770    1.000
    C43      C        0.00000    0.69270    0.66370    1.000
    N2       N        0.00000    0.55840    0.51480    1.000
    C44      C        0.00000    0.69560    0.84720    1.000
    C45      C        0.00000    0.75490    0.85910    1.000
    C46      C        0.00000    0.78440    0.92520    1.000
    C47      C        0.00000    0.77320    0.74420    1.000
    H5       H        0.00000    0.79940    0.70950    1.000
    C48      C        0.00000    0.79310    0.80620    1.000
    H6       H        0.00000    0.83320    0.81380    1.000
    O71      O        0.00000    0.58870    0.87840    1.000
    Na2      Na       0.00000    0.80910    0.55040    1.000
    O72      O        0.00000    0.89260    0.61600    1.000
    Cd3      Cd       0.50000    0.34351    0.04015    1.000
    S3       S        0.50000    0.35809    0.40962    1.000
    C49      C        0.50000    0.32340    0.28380    1.000
    H7       H        0.50000    0.36340    0.27550    1.000
    C50      C        0.50000    0.28520    0.23230    1.000
    O73      O        0.50000    0.36030    0.15420    1.000
    O74      O        0.50000    0.27130    0.11770    1.000
    C51      C        0.50000    0.30730    0.16370    1.000
    N3       N        0.50000    0.44160    0.01480    1.000
    C52      C        0.50000    0.30440    0.34720    1.000
    C53      C        0.50000    0.24510    0.35910    1.000
    C54      C        0.50000    0.21560    0.42520    1.000
    C55      C        0.50000    0.22680    0.24420    1.000
    H8       H        0.50000    0.20060    0.20950    1.000
    C56      C        0.50000    0.20690    0.30620    1.000
    H9       H        0.50000    0.16680    0.31380    1.000
    O75      O        0.50000    0.41130    0.37840    1.000
    Na3      Na       0.50000    0.19090    0.05040    1.000
    O76      O        0.50000    0.10740    0.11600    1.000
    Cd4      Cd       0.00000    0.84351    0.04015    1.000
    S4       S        0.00000    0.85809    0.40962    1.000
    C57      C        0.00000    0.82340    0.28380    1.000
    H10      H        0.00000    0.86340    0.27550    1.000
    C58      C        0.00000    0.78520    0.23230    1.000
    O77      O        0.00000    0.86030    0.15420    1.000
    O78      O        0.00000    0.77130    0.11770    1.000
    C59      C        0.00000    0.80730    0.16370    1.000
    N4       N        0.00000    0.94160    0.01480    1.000
    C60      C        0.00000    0.80440    0.34720    1.000
    C61      C        0.00000    0.74510    0.35910    1.000
    C62      C        0.00000    0.71560    0.42520    1.000
    C63      C        0.00000    0.72680    0.24420    1.000
    H11      H        0.00000    0.70060    0.20950    1.000
    C64      C        0.00000    0.70690    0.30620    1.000
    H12      H        0.00000    0.66680    0.31380    1.000
    O79      O        0.00000    0.91130    0.37840    1.000
    Na4      Na       0.00000    0.69090    0.05040    1.000
    O80      O        0.00000    0.60740    0.11600    1.000
    Cd5      Cd       0.50000    0.65649    0.95985    1.000
    S5       S        0.50000    0.64191    0.59038    1.000
    C65      C        0.50000    0.67660    0.71620    1.000
    H13      H        0.50000    0.63660    0.72450    1.000
    C66      C        0.50000    0.71480    0.76770    1.000
    O81      O        0.50000    0.63970    0.84580    1.000
    O82      O        0.50000    0.72870    0.88230    1.000
    C67      C        0.50000    0.69270    0.83630    1.000
    N5       N        0.50000    0.55840    0.98520    1.000
    C68      C        0.50000    0.69560    0.65280    1.000
    C69      C        0.50000    0.75490    0.64090    1.000
    C70      C        0.50000    0.78440    0.57480    1.000
    C71      C        0.50000    0.77320    0.75580    1.000
    H14      H        0.50000    0.79940    0.79050    1.000
    C72      C        0.50000    0.79310    0.69380    1.000
    H15      H        0.50000    0.83320    0.68620    1.000
    O83      O        0.50000    0.58870    0.62160    1.000
    Na5      Na       0.50000    0.80910    0.94960    1.000
    O84      O        0.50000    0.89260    0.88400    1.000
    Cd6      Cd       0.00000    0.15649    0.95985    1.000
    S6       S        0.00000    0.14191    0.59038    1.000
    C73      C        0.00000    0.17660    0.71620    1.000
    H16      H        0.00000    0.13660    0.72450    1.000
    C74      C        0.00000    0.21480    0.76770    1.000
    O85      O        0.00000    0.13970    0.84580    1.000
    O86      O        0.00000    0.22870    0.88230    1.000
    C75      C        0.00000    0.19270    0.83630    1.000
    N6       N        0.00000    0.05840    0.98520    1.000
    C76      C        0.00000    0.19560    0.65280    1.000
    C77      C        0.00000    0.25490    0.64090    1.000
    C78      C        0.00000    0.28440    0.57480    1.000
    C79      C        0.00000    0.27320    0.75580    1.000
    H17      H        0.00000    0.29940    0.79050    1.000
    C80      C        0.00000    0.29310    0.69380    1.000
    H18      H        0.00000    0.33320    0.68620    1.000
    O87      O        0.00000    0.08870    0.62160    1.000
    Na6      Na       0.00000    0.30910    0.94960    1.000
    O88      O        0.00000    0.39260    0.88400    1.000
    Cd7      Cd       0.50000    0.84351    0.45985    1.000
    S7       S        0.50000    0.85809    0.09038    1.000
    C81      C        0.50000    0.82340    0.21620    1.000
    H19      H        0.50000    0.86340    0.22450    1.000
    C82      C        0.50000    0.78520    0.26770    1.000
    O89      O        0.50000    0.86030    0.34580    1.000
    O90      O        0.50000    0.77130    0.38230    1.000
    C83      C        0.50000    0.80730    0.33630    1.000
    N7       N        0.50000    0.94160    0.48520    1.000
    C84      C        0.50000    0.80440    0.15280    1.000
    C85      C        0.50000    0.74510    0.14090    1.000
    C86      C        0.50000    0.71560    0.07480    1.000
    C87      C        0.50000    0.72680    0.25580    1.000
    H20      H        0.50000    0.70060    0.29050    1.000
    C88      C        0.50000    0.70690    0.19380    1.000
    H21      H        0.50000    0.66680    0.18620    1.000
    O91      O        0.50000    0.91130    0.12160    1.000
    Na7      Na       0.50000    0.69090    0.44960    1.000
    O92      O        0.50000    0.60740    0.38400    1.000
    Cd8      Cd       0.00000    0.34351    0.45985    1.000
    S8       S        0.00000    0.35809    0.09038    1.000
    C89      C        0.00000    0.32340    0.21620    1.000
    H22      H        0.00000    0.36340    0.22450    1.000
    C90      C        0.00000    0.28520    0.26770    1.000
    O93      O        0.00000    0.36030    0.34580    1.000
    O94      O        0.00000    0.27130    0.38230    1.000
    C91      C        0.00000    0.30730    0.33630    1.000
    N8       N        0.00000    0.44160    0.48520    1.000
    C92      C        0.00000    0.30440    0.15280    1.000
    C93      C        0.00000    0.24510    0.14090    1.000
    C94      C        0.00000    0.21560    0.07480    1.000
    C95      C        0.00000    0.22680    0.25580    1.000
    H23      H        0.00000    0.20060    0.29050    1.000
    C96      C        0.00000    0.20690    0.19380    1.000
    H24      H        0.00000    0.16680    0.18620    1.000
    O95      O        0.00000    0.41130    0.12160    1.000
    Na8      Na       0.00000    0.19090    0.44960    1.000
    O96      O        0.00000    0.10740    0.38400    1.000
