# CIF file generated by openbabel 3.1.0, see https://openbabel.org
data_I
_chemical_name_common 'image0'
_cell_length_a 10.7575
_cell_length_b 15.318
_cell_length_c 29.3906
_cell_angle_alpha 81.112
_cell_angle_beta 87.711
_cell_angle_gamma 84.536
_space_group_name_H-M_alt 'P 1'
_space_group_name_Hall 'P 1'
loop_
    _symmetry_equiv_pos_as_xyz
    x,y,z
loop_
    _atom_site_label
    _atom_site_type_symbol
    _atom_site_fract_x
    _atom_site_fract_y
    _atom_site_fract_z
    _atom_site_occupancy
    Zn1      Zn       0.27361    0.64965    0.69180    1.000
    Zn2      Zn       0.30113    0.87076    0.17906    1.000
    Zn3      Zn       0.20491    0.14310    0.19025    1.000
    Zn4      Zn       0.23574    0.39167    0.68358    1.000
    N1       N        0.19010    0.09368    0.26199    1.000
    N2       N        0.24560    0.60058    0.76373    1.000
    N3       N        0.28720    0.70377    0.61896    1.000
    N4       N        0.27610    0.81712    0.25016    1.000
    N5       N        0.21690    0.33340    0.75476    1.000
    N6       N        0.26000    0.44175    0.61158    1.000
    O1       O        0.30990    0.26608    0.20332    1.000
    O2       O        0.18990    0.79567    0.69770    1.000
    O3       O        0.41080    0.75120    0.16935    1.000
    O4       O        0.41003    0.41831    0.69598    1.000
    N7       N        0.25630    0.10749    0.95382    1.000
    O5       O        0.36720    0.06957    0.18156    1.000
    O6       O        0.05136    0.08478    0.17797    1.000
    O7       O        0.14800    0.28671    0.66787    1.000
    O8       O        0.42351    0.56508    0.68172    1.000
    O9       O        0.20900    0.74303    0.16594    1.000
    O10      O        0.34810    0.24194    0.67309    1.000
    O11      O        0.08140    0.47568    0.69245    1.000
    O12      O        0.10720    0.26647    0.19679    1.000
    O13      O        0.09825    0.62212    0.68110    1.000
    O14      O        0.13140    0.94335    0.18750    1.000
    N8       N        0.26770    0.14849    0.90886    1.000
    N9       N        0.23220    0.19785    0.11788    1.000
    N10      N        0.29870    0.92099    0.10685    1.000
    N11      N        0.28670    0.61496    0.45531    1.000
    N12      N        0.21480    0.87680    0.46307    1.000
    C1       C        0.18470    0.23920    0.84347    1.000
    C2       C        0.30410    0.78360    0.52647    1.000
    N13      N        0.30850    0.64938    0.40952    1.000
    O15      O        0.38790    0.74778    0.70463    1.000
    C3       C        0.15670    0.01900    0.35455    1.000
    O16      O        0.45327    0.93063    0.19170    1.000
    C4       C        0.18420    0.52810    0.85444    1.000
    C5       C        0.30280    0.24600    0.82284    1.000
    H1       H        0.37320    0.21870    0.83840    1.000
    C6       C        0.13890    0.75670    0.31031    1.000
    H2       H        0.05820    0.74380    0.31970    1.000
    C7       C        0.16860    0.18830    0.89007    1.000
    C8       C        0.16320    0.79590    0.26614    1.000
    H3       H        0.09710    0.80850    0.24600    1.000
    C9       C        0.31790    0.70700    0.16803    1.000
    C10      C        0.23680    0.73630    0.34121    1.000
    N14      N        0.19210    0.37550    0.96110    1.000
    N15      N        0.22810    0.91690    0.41711    1.000
    C11      C        0.31280    0.82730    0.47765    1.000
    C12      C        0.81160    0.02430    0.19312    1.000
    H4       H        0.81830    0.08420    0.19380    1.000
    C13      C        0.21440    0.69310    0.38896    1.000
    C14      C        0.91550    0.97130    0.19096    1.000
    H5       H        0.90830    0.91080    0.19300    1.000
    C15      C        0.37060    0.79775    0.27955    1.000
    H6       H        0.45010    0.81170    0.26910    1.000
    C16      C        0.68520    0.53150    0.69163    1.000
    C17      C        0.81990    0.51250    0.69236    1.000
    H7       H        0.85210    0.45360    0.69370    1.000
    C18      C        0.31480    0.29330    0.77937    1.000
    H8       H        0.39460    0.29780    0.76630    1.000
    C19      C        0.33680    0.90240    0.69681    1.000
    H9       H        0.41950    0.91060    0.70180    1.000
    N16      N        0.21830    0.41520    0.91632    1.000
    C20      C        0.58270    0.04660    0.19139    1.000
    H10      H        0.58640    0.10700    0.19110    1.000
    C21      C        0.28460    0.32280    0.97832    1.000
    C22      C        0.35500    0.75790    0.32472    1.000
    H11      H        0.42300    0.74560    0.34400    1.000
    C23      C        0.40560    0.30470    0.95345    1.000
    H12      H        0.39170    0.31060    0.92100    1.000
    H13      H        0.44060    0.24560    0.96440    1.000
    H14      H        0.46250    0.34640    0.95890    1.000
    C24      C        0.15250    0.48700    0.90219    1.000
    C25      C        0.08260    0.28170    0.81818    1.000
    H15      H        0.00180    0.27930    0.83060    1.000
    C26      C        0.30080    0.81070    0.70023    1.000
    C27      C        0.14060    0.97710    0.40309    1.000
    C28      C        0.34590    0.20810    0.09906    1.000
    H16      H        0.41490    0.18860    0.11720    1.000
    C29      C        0.10340    0.32670    0.77488    1.000
    H17      H        0.03460    0.35430    0.75850    1.000
    C30      C        0.68820    0.99400    0.19451    1.000
    H18      H        0.68230    0.93310    0.19780    1.000
    C31      C        0.26550    0.27880    0.02624    1.000
    C32      C        0.07650    0.08820    0.33355    1.000
    H19      H        0.00910    0.11120    0.35020    1.000
    C33      C        0.27450    0.48660    0.82856    1.000
    H20      H        0.31640    0.43300    0.84110    1.000
    C34      C        0.90010    0.57360    0.69118    1.000
    H21      H        0.86780    0.63180    0.69200    1.000
    C35      C        0.04260    0.00170    0.18548    1.000
    C36      C        0.20300    0.30630    0.19910    1.000
    C37      C        0.60740    0.46870    0.69246    1.000
    C38      C        0.25680    0.97300    0.68702    1.000
    H22      H        0.17420    0.96350    0.68290    1.000
    C39      C        0.30450    0.98980    0.01242    1.000
    C40      C        0.20650    0.54240    0.54349    1.000
    H23      H        0.15740    0.59230    0.53010    1.000
    C41      C        0.30260    0.52400    0.78443    1.000
    H24      H        0.36440    0.49460    0.76790    1.000
    C42      C        0.03730    0.55510    0.68861    1.000
    C43      C        0.29300    0.49970    0.51708    1.000
    C44      C        0.31070    0.53190    0.46731    1.000
    C45      C        0.36620    0.24610    0.05419    1.000
    H25      H        0.44740    0.25000    0.04250    1.000
    C46      C        0.13510    0.22800    0.09088    1.000
    H26      H        0.05500    0.22120    0.10320    1.000
    C47      C        0.23710    0.22640    0.67032    1.000
    C48      C        0.40820    0.74100    0.54997    1.000
    H27      H        0.48600    0.73810    0.53500    1.000
    C49      C        0.19160    0.78420    0.55093    1.000
    H28      H        0.11930    0.81200    0.53680    1.000
    C50      C        0.46890    0.48620    0.68973    1.000
    C51      C        0.22880    0.02860    0.04372    1.000
    H29      H        0.17660    0.07940    0.03380    1.000
    C52      C        0.28730    0.06390    0.68221    1.000
    H30      H        0.37000    0.07390    0.68590    1.000
    C53      C        0.09660    0.12330    0.28782    1.000
    H31      H        0.04160    0.17000    0.27460    1.000
    C54      C        0.18640    0.74400    0.59597    1.000
    H32      H        0.10930    0.74460    0.61140    1.000
    C55      C        0.45870    0.01280    0.18828    1.000
    C56      C        0.25740    0.55400    0.17994    1.000
    H33      H        0.17510    0.57860    0.18120    1.000
    C57      C        0.39560    0.70310    0.59548    1.000
    H34      H        0.46660    0.67560    0.61050    1.000
    C58      C        0.43140    0.81180    0.45039    1.000
    H35      H        0.41680    0.83140    0.41830    1.000
    H36      H        0.45880    0.74960    0.45510    1.000
    H37      H        0.49460    0.84430    0.46030    1.000
    C59      C        0.14740    0.26850    0.04601    1.000
    H38      H        0.07680    0.28900    0.02890    1.000
    C60      C        0.08560    0.70280    0.41014    1.000
    H39      H        0.03700    0.65860    0.40170    1.000
    H40      H        0.04630    0.76080    0.39930    1.000
    H41      H        0.09090    0.69510    0.44310    1.000
    C61      C        0.27730    0.45780    0.18673    1.000
    H42      H        0.35900    0.43200    0.18550    1.000
    C62      C        0.30870    0.02910    0.96310    1.000
    C63      C        0.12740    0.60800    0.83328    1.000
    H43      H        0.06720    0.63970    0.84940    1.000
    C64      C        0.18700    0.40510    0.19446    1.000
    H44      H        0.10620    0.43160    0.19730    1.000
    C65      C        0.34410    0.60920    0.17226    1.000
    H45      H        0.42650    0.58600    0.16930    1.000
    C66      C        0.15910    0.64100    0.78866    1.000
    H46      H        0.11800    0.69440    0.77520    1.000
    C67      C        0.25520    0.98860    0.32751    1.000
    H47      H        0.31220    0.94240    0.33990    1.000
    C68      C        0.26840    0.02680    0.28254    1.000
    H48      H        0.33530    0.00530    0.26520    1.000
    C69      C        0.05380    0.53150    0.92972    1.000
    H49      H        0.07910    0.58750    0.93490    1.000
    H50      H        0.04130    0.49480    0.95880    1.000
    H51      H        0.97720    0.54110    0.91330    1.000
    C70      C        0.22940    0.99340    0.08950    1.000
    H52      H        0.17770    0.02230    0.10970    1.000
    C71      C        0.04210    0.18620    0.91242    1.000
    H53      H        0.99490    0.14710    0.89890    1.000
    H54      H        0.99990    0.24490    0.90800    1.000
    H55      H        0.04980    0.16540    0.94480    1.000
    C72      C        0.20550    0.13340    0.67288    1.000
    H56      H        0.12360    0.12380    0.66760    1.000
    C73      C        0.19210    0.51160    0.58963    1.000
    H57      H        0.13140    0.54130    0.60650    1.000
    C74      C        0.37170    0.88230    0.07702    1.000
    H58      H        0.42250    0.83150    0.08800    1.000
    C75      C        0.03230    0.00770    0.43133    1.000
    H59      H        0.04020    0.06750    0.43610    1.000
    H60      H        0.03040    0.96980    0.46060    1.000
    H61      H        0.95640    0.00560    0.41560    1.000
    C76      C        0.35320    0.46900    0.43490    1.000
    H62      H        0.28390    0.43880    0.42780    1.000
    H63      H        0.41710    0.42640    0.44890    1.000
    H64      H        0.38610    0.50110    0.40710    1.000
    C77      C        0.37360    0.97830    0.92798    1.000
    H65      H        0.31910    0.93760    0.91960    1.000
    H66      H        0.44820    0.94590    0.94070    1.000
    H67      H        0.39500    0.01880    0.90120    1.000
    C78      C        0.37610    0.91370    0.03045    1.000
    H68      H        0.42790    0.88320    0.01100    1.000
    C79      C        0.36410    0.42730    0.54006    1.000
    H69      H        0.42490    0.39600    0.52400    1.000
    C80      C        0.34480    0.40160    0.58655    1.000
    H70      H        0.39450    0.35310    0.60110    1.000
    H71      H        0.65500    0.59400    0.69120    1.000
    H72      H        0.63800    0.40600    0.69450    1.000
    Zn5      Zn       0.72639    0.35035    0.30820    1.000
    Zn6      Zn       0.69887    0.12924    0.82094    1.000
    Zn7      Zn       0.79509    0.85690    0.80975    1.000
    Zn8      Zn       0.76426    0.60833    0.31642    1.000
    N17      N        0.80990    0.90632    0.73801    1.000
    N18      N        0.75440    0.39942    0.23627    1.000
    N19      N        0.71280    0.29623    0.38104    1.000
    N20      N        0.72390    0.18288    0.74984    1.000
    N21      N        0.78310    0.66660    0.24524    1.000
    N22      N        0.74000    0.55825    0.38842    1.000
    O17      O        0.69010    0.73392    0.79668    1.000
    O18      O        0.81010    0.20433    0.30230    1.000
    O19      O        0.58920    0.24880    0.83065    1.000
    O20      O        0.58997    0.58169    0.30402    1.000
    N23      N        0.74370    0.89251    0.04618    1.000
    O21      O        0.63280    0.93043    0.81844    1.000
    O22      O        0.94864    0.91522    0.82203    1.000
    O23      O        0.85200    0.71329    0.33213    1.000
    O24      O        0.57649    0.43492    0.31828    1.000
    O25      O        0.79100    0.25697    0.83406    1.000
    O26      O        0.65190    0.75806    0.32691    1.000
    O27      O        0.91860    0.52432    0.30755    1.000
    O28      O        0.89280    0.73353    0.80321    1.000
    O29      O        0.90175    0.37788    0.31890    1.000
    O30      O        0.86860    0.05665    0.81250    1.000
    N24      N        0.73230    0.85151    0.09114    1.000
    N25      N        0.76780    0.80215    0.88212    1.000
    N26      N        0.70130    0.07901    0.89315    1.000
    N27      N        0.71330    0.38504    0.54469    1.000
    N28      N        0.78520    0.12320    0.53693    1.000
    C81      C        0.81530    0.76080    0.15653    1.000
    C82      C        0.69590    0.21640    0.47353    1.000
    N29      N        0.69150    0.35062    0.59048    1.000
    O31      O        0.61210    0.25222    0.29537    1.000
    C83      C        0.84330    0.98100    0.64545    1.000
    O32      O        0.54673    0.06937    0.80830    1.000
    C84      C        0.81580    0.47190    0.14556    1.000
    C85      C        0.69720    0.75400    0.17716    1.000
    H73      H        0.62680    0.78130    0.16160    1.000
    C86      C        0.86110    0.24330    0.68969    1.000
    H74      H        0.94180    0.25620    0.68030    1.000
    C87      C        0.83140    0.81170    0.10993    1.000
    C88      C        0.83680    0.20410    0.73386    1.000
    H75      H        0.90290    0.19150    0.75400    1.000
    C89      C        0.68210    0.29300    0.83197    1.000
    C90      C        0.76320    0.26370    0.65879    1.000
    N30      N        0.80790    0.62450    0.03890    1.000
    N31      N        0.77190    0.08310    0.58289    1.000
    C91      C        0.68720    0.17270    0.52235    1.000
    C92      C        0.18840    0.97570    0.80688    1.000
    H76      H        0.18170    0.91580    0.80620    1.000
    C93      C        0.78560    0.30690    0.61104    1.000
    C94      C        0.08450    0.02870    0.80904    1.000
    H77      H        0.09170    0.08920    0.80700    1.000
    C95      C        0.62940    0.20225    0.72045    1.000
    H78      H        0.54990    0.18830    0.73090    1.000
    C96      C        0.31480    0.46850    0.30837    1.000
    C97      C        0.18010    0.48750    0.30764    1.000
    H79      H        0.14790    0.54640    0.30630    1.000
    C98      C        0.68520    0.70670    0.22063    1.000
    H80      H        0.60540    0.70220    0.23370    1.000
    C99      C        0.66320    0.09760    0.30319    1.000
    H81      H        0.58050    0.08940    0.29820    1.000
    N32      N        0.78170    0.58480    0.08368    1.000
    C100     C        0.41730    0.95340    0.80861    1.000
    H82      H        0.41360    0.89300    0.80890    1.000
    C101     C        0.71540    0.67720    0.02168    1.000
    C102     C        0.64500    0.24210    0.67528    1.000
    H83      H        0.57700    0.25440    0.65600    1.000
    C103     C        0.59440    0.69530    0.04655    1.000
    H84      H        0.60830    0.68940    0.07900    1.000
    H85      H        0.55940    0.75440    0.03560    1.000
    H86      H        0.53750    0.65360    0.04110    1.000
    C104     C        0.84750    0.51300    0.09781    1.000
    C105     C        0.91740    0.71830    0.18182    1.000
    H87      H        0.99820    0.72070    0.16940    1.000
    C106     C        0.69920    0.18930    0.29977    1.000
    C107     C        0.85940    0.02290    0.59691    1.000
    C108     C        0.65410    0.79190    0.90094    1.000
    H88      H        0.58510    0.81140    0.88280    1.000
    C109     C        0.89660    0.67330    0.22512    1.000
    H89      H        0.96540    0.64570    0.24150    1.000
    C110     C        0.31180    0.00600    0.80549    1.000
    H90      H        0.31770    0.06690    0.80220    1.000
    C111     C        0.73450    0.72120    0.97376    1.000
    C112     C        0.92350    0.91180    0.66645    1.000
    H91      H        0.99090    0.88880    0.64980    1.000
    C113     C        0.72550    0.51340    0.17144    1.000
    H92      H        0.68360    0.56700    0.15890    1.000
    C114     C        0.09990    0.42640    0.30882    1.000
    H93      H        0.13220    0.36820    0.30800    1.000
    C115     C        0.95740    0.99830    0.81452    1.000
    C116     C        0.79700    0.69370    0.80090    1.000
    C117     C        0.39260    0.53130    0.30754    1.000
    C118     C        0.74320    0.02700    0.31298    1.000
    H94      H        0.82580    0.03650    0.31710    1.000
    C119     C        0.69550    0.01020    0.98758    1.000
    C120     C        0.79350    0.45760    0.45651    1.000
    H95      H        0.84260    0.40770    0.46990    1.000
    C121     C        0.69740    0.47600    0.21557    1.000
    H96      H        0.63560    0.50540    0.23210    1.000
    C122     C        0.96270    0.44490    0.31139    1.000
    C123     C        0.70700    0.50030    0.48292    1.000
    C124     C        0.68930    0.46810    0.53269    1.000
    C125     C        0.63380    0.75390    0.94581    1.000
    H97      H        0.55260    0.75000    0.95750    1.000
    C126     C        0.86490    0.77200    0.90912    1.000
    H98      H        0.94500    0.77880    0.89680    1.000
    C127     C        0.76290    0.77360    0.32968    1.000
    C128     C        0.59180    0.25900    0.45003    1.000
    H99      H        0.51400    0.26190    0.46500    1.000
    C129     C        0.80840    0.21580    0.44907    1.000
    H100     H        0.88070    0.18800    0.46320    1.000
    C130     C        0.53110    0.51380    0.31027    1.000
    C131     C        0.77120    0.97140    0.95628    1.000
    H101     H        0.82340    0.92060    0.96620    1.000
    C132     C        0.71270    0.93610    0.31779    1.000
    H102     H        0.63000    0.92610    0.31410    1.000
    C133     C        0.90340    0.87670    0.71218    1.000
    H103     H        0.95840    0.83000    0.72540    1.000
    C134     C        0.81360    0.25600    0.40403    1.000
    H104     H        0.89070    0.25540    0.38860    1.000
    C135     C        0.54130    0.98720    0.81172    1.000
    C136     C        0.74260    0.44600    0.82006    1.000
    H105     H        0.82490    0.42140    0.81880    1.000
    C137     C        0.60440    0.29690    0.40452    1.000
    H106     H        0.53340    0.32440    0.38950    1.000
    C138     C        0.56860    0.18820    0.54961    1.000
    H107     H        0.58320    0.16860    0.58170    1.000
    H108     H        0.54120    0.25040    0.54490    1.000
    H109     H        0.50540    0.15570    0.53970    1.000
    C139     C        0.85260    0.73150    0.95399    1.000
    H110     H        0.92320    0.71100    0.97110    1.000
    C140     C        0.91440    0.29720    0.58986    1.000
    H111     H        0.96300    0.34140    0.59830    1.000
    H112     H        0.95370    0.23920    0.60070    1.000
    H113     H        0.90910    0.30490    0.55690    1.000
    C141     C        0.72270    0.54220    0.81327    1.000
    H114     H        0.64100    0.56800    0.81450    1.000
    C142     C        0.69130    0.97090    0.03690    1.000
    C143     C        0.87260    0.39200    0.16672    1.000
    H115     H        0.93280    0.36030    0.15060    1.000
    C144     C        0.81300    0.59490    0.80554    1.000
    H116     H        0.89380    0.56840    0.80270    1.000
    C145     C        0.65590    0.39080    0.82774    1.000
    H117     H        0.57350    0.41400    0.83070    1.000
    C146     C        0.84090    0.35900    0.21134    1.000
    H118     H        0.88200    0.30560    0.22480    1.000
    C147     C        0.74480    0.01140    0.67249    1.000
    H119     H        0.68780    0.05760    0.66010    1.000
    C148     C        0.73160    0.97320    0.71746    1.000
    H120     H        0.66470    0.99470    0.73480    1.000
    C149     C        0.94620    0.46850    0.07028    1.000
    H121     H        0.92090    0.41250    0.06510    1.000
    H122     H        0.95870    0.50520    0.04120    1.000
    H123     H        0.02280    0.45890    0.08670    1.000
    C150     C        0.77060    0.00660    0.91050    1.000
    H124     H        0.82230    0.97770    0.89030    1.000
    C151     C        0.95790    0.81380    0.08758    1.000
    H125     H        0.00510    0.85290    0.10110    1.000
    H126     H        0.00010    0.75510    0.09200    1.000
    H127     H        0.95020    0.83460    0.05520    1.000
    C152     C        0.79450    0.86660    0.32712    1.000
    H128     H        0.87640    0.87620    0.33240    1.000
    C153     C        0.80790    0.48840    0.41037    1.000
    H129     H        0.86860    0.45870    0.39350    1.000
    C154     C        0.62830    0.11770    0.92298    1.000
    H130     H        0.57750    0.16850    0.91200    1.000
    C155     C        0.96770    0.99230    0.56867    1.000
    H131     H        0.95980    0.93250    0.56390    1.000
    H132     H        0.96960    0.03020    0.53940    1.000
    H133     H        0.04360    0.99440    0.58440    1.000
    C156     C        0.64680    0.53100    0.56510    1.000
    H134     H        0.71610    0.56120    0.57220    1.000
    H135     H        0.58290    0.57360    0.55110    1.000
    H136     H        0.61390    0.49890    0.59290    1.000
    C157     C        0.62640    0.02170    0.07202    1.000
    H137     H        0.68090    0.06240    0.08040    1.000
    H138     H        0.55180    0.05410    0.05930    1.000
    H139     H        0.60500    0.98120    0.09880    1.000
    C158     C        0.62390    0.08630    0.96955    1.000
    H140     H        0.57210    0.11680    0.98900    1.000
    C159     C        0.63590    0.57270    0.45994    1.000
    H141     H        0.57510    0.60400    0.47600    1.000
    C160     C        0.65520    0.59840    0.41345    1.000
    H142     H        0.60550    0.64690    0.39890    1.000
    H143     H        0.34500    0.40600    0.30880    1.000
    H144     H        0.36200    0.59400    0.30550    1.000
