# CIF file generated by openbabel 3.1.0, see https://openbabel.org
data_I
_chemical_name_common 'KIBYAW_charged'
_cell_length_a 13.627
_cell_length_b 14.044
_cell_length_c 16.321
_cell_angle_alpha 90
_cell_angle_beta 90
_cell_angle_gamma 115.186
_space_group_name_H-M_alt 'P 1'
_space_group_name_Hall 'P 1'
loop_
    _symmetry_equiv_pos_as_xyz
    x,y,z
loop_
    _atom_site_label
    _atom_site_type_symbol
    _atom_site_fract_x
    _atom_site_fract_y
    _atom_site_fract_z
    _atom_site_occupancy
    Ag1      Ag       0.40988    0.72897    0.93072    1.000
    Ag2      Ag       0.09012    0.27103    0.43072    1.000
    Ag3      Ag       0.59012    0.27103    0.06928    1.000
    Ag4      Ag       0.90988    0.72897    0.56928    1.000
    H1       H        0.18230    0.57160    0.00190    1.000
    H2       H        0.09540    0.44510    0.09870    1.000
    H3       H        0.37370    0.55040    0.22420    1.000
    H4       H        0.45100    0.67540    0.12520    1.000
    H5       H        0.09870    0.34970    0.21600    1.000
    H6       H        0.21090    0.34700    0.23080    1.000
    H7       H        0.00680    0.43420    0.30070    1.000
    H8       H        0.09630    0.55050    0.30780    1.000
    H9       H        0.16130    0.62080    0.44710    1.000
    H10      H        0.78150    0.30060    0.42390    1.000
    H11      H        0.85660    0.33970    0.34690    1.000
    H12      H        0.75110    0.13630    0.51260    1.000
    H13      H        0.86390    0.20620    0.55310    1.000
    H14      H        0.74240    0.96270    0.44190    1.000
    H15      H        0.95810    0.11480    0.61720    1.000
    H16      H        0.98300    0.96490    0.63700    1.000
    H17      H        0.77310    0.81720    0.46680    1.000
    H18      H        0.31770    0.42840    0.50190    1.000
    H19      H        0.40460    0.55490    0.59870    1.000
    H20      H        0.12630    0.44960    0.72420    1.000
    H21      H        0.04900    0.32460    0.62520    1.000
    H22      H        0.40130    0.65030    0.71600    1.000
    H23      H        0.28910    0.65300    0.73080    1.000
    H24      H        0.49320    0.56580    0.80070    1.000
    H25      H        0.40370    0.44950    0.80780    1.000
    H26      H        0.33870    0.37920    0.94710    1.000
    H27      H        0.71850    0.69940    0.92390    1.000
    H28      H        0.64340    0.66030    0.84690    1.000
    H29      H        0.74890    0.86370    0.01260    1.000
    H30      H        0.63610    0.79380    0.05310    1.000
    H31      H        0.75760    0.03730    0.94190    1.000
    H32      H        0.54190    0.88520    0.11720    1.000
    H33      H        0.51700    0.03510    0.13700    1.000
    H34      H        0.72690    0.18280    0.96680    1.000
    H35      H        0.81770    0.42840    0.99810    1.000
    H36      H        0.90460    0.55490    0.90130    1.000
    H37      H        0.62630    0.44960    0.77580    1.000
    H38      H        0.54900    0.32460    0.87480    1.000
    H39      H        0.90130    0.65030    0.78400    1.000
    H40      H        0.78910    0.65300    0.76920    1.000
    H41      H        0.99320    0.56580    0.69930    1.000
    H42      H        0.90370    0.44950    0.69220    1.000
    H43      H        0.83870    0.37920    0.55290    1.000
    H44      H        0.21850    0.69940    0.57610    1.000
    H45      H        0.14340    0.66030    0.65310    1.000
    H46      H        0.24890    0.86370    0.48740    1.000
    H47      H        0.13610    0.79380    0.44690    1.000
    H48      H        0.25760    0.03730    0.55810    1.000
    H49      H        0.04190    0.88520    0.38280    1.000
    H50      H        0.01700    0.03510    0.36300    1.000
    H51      H        0.22690    0.18280    0.53320    1.000
    H52      H        0.68230    0.57160    0.49810    1.000
    H53      H        0.59540    0.44510    0.40130    1.000
    H54      H        0.87370    0.55040    0.27580    1.000
    H55      H        0.95100    0.67540    0.37480    1.000
    H56      H        0.59870    0.34970    0.28400    1.000
    H57      H        0.71090    0.34700    0.26920    1.000
    H58      H        0.50680    0.43420    0.19930    1.000
    H59      H        0.59630    0.55050    0.19220    1.000
    H60      H        0.66130    0.62080    0.05290    1.000
    H61      H        0.28150    0.30060    0.07610    1.000
    H62      H        0.35660    0.33970    0.15310    1.000
    H63      H        0.25110    0.13630    0.98740    1.000
    H64      H        0.36390    0.20620    0.94690    1.000
    H65      H        0.24240    0.96270    0.05810    1.000
    H66      H        0.45810    0.11480    0.88280    1.000
    H67      H        0.48300    0.96490    0.86300    1.000
    H68      H        0.27310    0.81720    0.03320    1.000
    C1       C        0.22150    0.56700    0.04720    1.000
    C2       C        0.16850    0.49000    0.10510    1.000
    C3       C        0.22510    0.48050    0.17240    1.000
    C4       C        0.33280    0.55260    0.17930    1.000
    C5       C        0.37890    0.62750    0.11910    1.000
    C6       C        0.17300    0.39180    0.23290    1.000
    C7       C        0.06740    0.48160    0.33338    1.000
    C8       C        0.02980    0.48840    0.41929    1.000
    C9       C        0.93180    0.41390    0.45182    1.000
    C10      C        0.09590    0.57210    0.46843    1.000
    C11      C        0.85450    0.31980    0.40400    1.000
    C12      C        0.82800    0.15360    0.51130    1.000
    C13      C        0.84610    0.05620    0.52728    1.000
    C14      C        0.79150    0.96490    0.48230    1.000
    C15      C        0.91920    0.05520    0.58600    1.000
    C16      C        0.93340    0.96440    0.59760    1.000
    C17      C        0.81030    0.87760    0.49770    1.000
    C18      C        0.27850    0.43300    0.54720    1.000
    C19      C        0.33150    0.51000    0.60510    1.000
    C20      C        0.27490    0.51950    0.67240    1.000
    C21      C        0.16720    0.44740    0.67930    1.000
    C22      C        0.12110    0.37250    0.61910    1.000
    C23      C        0.32700    0.60820    0.73290    1.000
    C24      C        0.43260    0.51840    0.83338    1.000
    C25      C        0.47020    0.51160    0.91929    1.000
    C26      C        0.56820    0.58610    0.95182    1.000
    C27      C        0.40410    0.42790    0.96843    1.000
    C28      C        0.64550    0.68020    0.90400    1.000
    C29      C        0.67200    0.84640    0.01130    1.000
    C30      C        0.65390    0.94380    0.02728    1.000
    C31      C        0.70850    0.03510    0.98230    1.000
    C32      C        0.58080    0.94480    0.08600    1.000
    C33      C        0.56660    0.03560    0.09760    1.000
    C34      C        0.68970    0.12240    0.99770    1.000
    C35      C        0.77850    0.43300    0.95280    1.000
    C36      C        0.83150    0.51000    0.89490    1.000
    C37      C        0.77490    0.51950    0.82760    1.000
    C38      C        0.66720    0.44740    0.82070    1.000
    C39      C        0.62110    0.37250    0.88090    1.000
    C40      C        0.82700    0.60820    0.76710    1.000
    C41      C        0.93260    0.51840    0.66662    1.000
    C42      C        0.97020    0.51160    0.58071    1.000
    C43      C        0.06820    0.58610    0.54818    1.000
    C44      C        0.90410    0.42790    0.53157    1.000
    C45      C        0.14550    0.68020    0.59600    1.000
    C46      C        0.17200    0.84640    0.48870    1.000
    C47      C        0.15390    0.94380    0.47272    1.000
    C48      C        0.20850    0.03510    0.51770    1.000
    C49      C        0.08080    0.94480    0.41400    1.000
    C50      C        0.06660    0.03560    0.40240    1.000
    C51      C        0.18970    0.12240    0.50230    1.000
    C52      C        0.72150    0.56700    0.45280    1.000
    C53      C        0.66850    0.49000    0.39490    1.000
    C54      C        0.72510    0.48050    0.32760    1.000
    C55      C        0.83280    0.55260    0.32070    1.000
    C56      C        0.87890    0.62750    0.38090    1.000
    C57      C        0.67300    0.39180    0.26710    1.000
    C58      C        0.56740    0.48160    0.16662    1.000
    C59      C        0.52980    0.48840    0.08071    1.000
    C60      C        0.43180    0.41390    0.04818    1.000
    C61      C        0.59590    0.57210    0.03157    1.000
    C62      C        0.35450    0.31980    0.09600    1.000
    C63      C        0.32800    0.15360    0.98870    1.000
    C64      C        0.34610    0.05620    0.97272    1.000
    C65      C        0.29150    0.96490    0.01770    1.000
    C66      C        0.41920    0.05520    0.91400    1.000
    C67      C        0.43340    0.96440    0.90240    1.000
    C68      C        0.31030    0.87760    0.00230    1.000
    S1       S        0.17243    0.43315    0.33815    1.000
    S2       S        0.88395    0.20440    0.41059    1.000
    S3       S        0.32757    0.56685    0.83815    1.000
    S4       S        0.61605    0.79560    0.91059    1.000
    S5       S        0.82757    0.56685    0.66185    1.000
    S6       S        0.11605    0.79560    0.58941    1.000
    S7       S        0.67243    0.43315    0.16185    1.000
    S8       S        0.38395    0.20440    0.08941    1.000
    N1       N        0.32590    0.63510    0.05267    1.000
    N2       N        0.87950    0.87570    0.55507    1.000
    N3       N        0.17410    0.36490    0.55267    1.000
    N4       N        0.62050    0.12430    0.05507    1.000
    N5       N        0.67410    0.36490    0.94733    1.000
    N6       N        0.12050    0.12430    0.44493    1.000
    N7       N        0.82590    0.63510    0.44733    1.000
    N8       N        0.37950    0.87570    0.94493    1.000
    P1       P        0.73891    0.81114    0.24822    1.000
    F1       F        0.77780    0.74580    0.18910    1.000
    F2       F        0.69460    0.87200    0.30600    1.000
    F3       F        0.85440    0.86280    0.28880    1.000
    F4       F        0.77620    0.90070    0.18100    1.000
    F5       F        0.70150    0.71950    0.31300    1.000
    F6       F        0.62130    0.75670    0.20674    1.000
    P2       P        0.76109    0.18886    0.74822    1.000
    F7       F        0.72220    0.25420    0.68910    1.000
    F8       F        0.80540    0.12800    0.80600    1.000
    F9       F        0.64560    0.13720    0.78880    1.000
    F10      F        0.72380    0.09930    0.68100    1.000
    F11      F        0.79850    0.28050    0.81300    1.000
    F12      F        0.87870    0.24330    0.70674    1.000
    P3       P        0.26109    0.18886    0.75178    1.000
    F13      F        0.22220    0.25420    0.81090    1.000
    F14      F        0.30540    0.12800    0.69400    1.000
    F15      F        0.14560    0.13720    0.71120    1.000
    F16      F        0.22380    0.09930    0.81900    1.000
    F17      F        0.29850    0.28050    0.68700    1.000
    F18      F        0.37870    0.24330    0.79326    1.000
    P4       P        0.23891    0.81114    0.25178    1.000
    F19      F        0.27780    0.74580    0.31090    1.000
    F20      F        0.19460    0.87200    0.19400    1.000
    F21      F        0.35440    0.86280    0.21120    1.000
    F22      F        0.27620    0.90070    0.31900    1.000
    F23      F        0.20150    0.71950    0.18700    1.000
    F24      F        0.12130    0.75670    0.29326    1.000
