# CIF file generated by openbabel 3.1.0, see https://openbabel.org
data_I
_chemical_name_common 'XUNGUJ_clean'
_cell_length_a 5.4028
_cell_length_b 11.2862
_cell_length_c 13.9175
_cell_angle_alpha 90
_cell_angle_beta 90
_cell_angle_gamma 102.875
_space_group_name_H-M_alt 'P 1'
_space_group_name_Hall 'P 1'
loop_
    _symmetry_equiv_pos_as_xyz
    x,y,z
loop_
    _atom_site_label
    _atom_site_type_symbol
    _atom_site_fract_x
    _atom_site_fract_y
    _atom_site_fract_z
    _atom_site_occupancy
    Li1      Li       0.81240    0.00890    0.56580    1.000
    Li2      Li       0.68760    0.49110    0.06580    1.000
    Li3      Li       0.18760    0.99110    0.43420    1.000
    Li4      Li       0.31240    0.50890    0.93420    1.000
    H1       H        0.95740    0.72430    0.37320    1.000
    H2       H        0.39450    0.66820    0.12270    1.000
    H3       H        0.36430    0.81020    0.23760    1.000
    H4       H        0.96370    0.58290    0.25530    1.000
    H5       H        0.54260    0.77570    0.87320    1.000
    H6       H        0.10550    0.83180    0.62270    1.000
    H7       H        0.13570    0.68980    0.73760    1.000
    H8       H        0.53630    0.91710    0.75530    1.000
    H9       H        0.04260    0.27570    0.62680    1.000
    H10      H        0.60550    0.33180    0.87730    1.000
    H11      H        0.63570    0.18980    0.76240    1.000
    H12      H        0.03630    0.41710    0.74470    1.000
    H13      H        0.45740    0.22430    0.12680    1.000
    H14      H        0.89450    0.16820    0.37730    1.000
    H15      H        0.86430    0.31020    0.26240    1.000
    H16      H        0.46370    0.08290    0.24470    1.000
    C1       C        0.63590    0.87480    0.39689    1.000
    C2       C        0.65850    0.78440    0.31884    1.000
    C3       C        0.84030    0.71440    0.32320    1.000
    C4       C        0.50810    0.67930    0.17386    1.000
    C5       C        0.48910    0.76550    0.24255    1.000
    C6       C        0.84270    0.62980    0.25159    1.000
    C7       C        0.86410    0.62520    0.89689    1.000
    C8       C        0.84150    0.71560    0.81884    1.000
    C9       C        0.65970    0.78560    0.82320    1.000
    C10      C        0.99190    0.82070    0.67386    1.000
    C11      C        0.01090    0.73450    0.74255    1.000
    C12      C        0.65730    0.87020    0.75159    1.000
    C13      C        0.36410    0.12520    0.60311    1.000
    C14      C        0.34150    0.21560    0.68116    1.000
    C15      C        0.15970    0.28560    0.67680    1.000
    C16      C        0.49190    0.32070    0.82614    1.000
    C17      C        0.51090    0.23450    0.75745    1.000
    C18      C        0.15730    0.37020    0.74841    1.000
    C19      C        0.13590    0.37480    0.10311    1.000
    C20      C        0.15850    0.28440    0.18116    1.000
    C21      C        0.34030    0.21440    0.17680    1.000
    C22      C        0.00810    0.17930    0.32614    1.000
    C23      C        0.98910    0.26550    0.25745    1.000
    C24      C        0.34270    0.12980    0.24841    1.000
    N1       N        0.68160    0.61120    0.17727    1.000
    N2       N        0.81840    0.88880    0.67727    1.000
    N3       N        0.31840    0.38880    0.82273    1.000
    N4       N        0.18160    0.11120    0.32273    1.000
    O1       O        0.82600    0.91302    0.44943    1.000
    O2       O        0.42790    0.90417    0.40297    1.000
    O3       O        0.67400    0.58698    0.94943    1.000
    O4       O        0.07210    0.59583    0.90297    1.000
    O5       O        0.17400    0.08698    0.55057    1.000
    O6       O        0.57210    0.09583    0.59703    1.000
    O7       O        0.32600    0.41302    0.05057    1.000
    O8       O        0.92790    0.40417    0.09703    1.000
