# CIF file generated by openbabel 3.1.0, see https://openbabel.org
data_I
_chemical_name_common 'image0'
_cell_length_a 26.262
_cell_length_b 26.262
_cell_length_c 5.071
_cell_angle_alpha 90
_cell_angle_beta 90
_cell_angle_gamma 90
_space_group_name_H-M_alt 'P 1'
_space_group_name_Hall 'P 1'
loop_
    _symmetry_equiv_pos_as_xyz
    x,y,z
loop_
    _atom_site_label
    _atom_site_type_symbol
    _atom_site_fract_x
    _atom_site_fract_y
    _atom_site_fract_z
    _atom_site_occupancy
    Zn1      Zn       0.27419    0.21467    0.87220    1.000
    O1       O        0.22000    0.24990    0.04100    1.000
    H1       H        0.19890    0.26110    0.92770    1.000
    N1       N        0.25520    0.14260    0.86900    1.000
    C1       C        0.27120    0.10650    0.02500    1.000
    H2       H        0.29760    0.11030    0.14630    1.000
    N2       N        0.24480    0.06260    0.99000    1.000
    C2       C        0.21500    0.11920    0.72400    1.000
    O2       O        0.27270    0.83400    0.42000    1.000
    C3       C        0.18550    0.14190    0.53100    1.000
    H3       H        0.19070    0.17570    0.48460    1.000
    O3       O        0.32080    0.87620    0.71500    1.000
    C4       C        0.14800    0.11340    0.40900    1.000
    C5       C        0.11740    0.13410    0.21500    1.000
    H4       H        0.12230    0.16790    0.16700    1.000
    C6       C        0.07950    0.10630    0.09000    1.000
    H5       H        0.05940    0.12100    0.95990    1.000
    C7       C        0.07250    0.05590    0.16500    1.000
    H6       H        0.04740    0.03630    0.08520    1.000
    C8       C        0.10320    0.03510    0.36000    1.000
    H7       H        0.09820    0.00140    0.40880    1.000
    C9       C        0.14100    0.06310    0.48400    1.000
    C10      C        0.17010    0.04030    0.67700    1.000
    H8       H        0.16570    0.00610    0.71870    1.000
    C11      C        0.20610    0.06960    0.80600    1.000
    C12      C        0.25760    0.01450    0.11100    1.000
    C13      C        0.28240    0.92470    0.34800    1.000
    C14      C        0.28110    0.01430    0.35500    1.000
    H9       H        0.28830    0.04510    0.43750    1.000
    C15      C        0.29390    0.96940    0.47800    1.000
    H10      H        0.30970    0.96920    0.64270    1.000
    C16      C        0.25900    0.92310    0.10600    1.000
    H11      H        0.25150    0.89230    0.02410    1.000
    C17      C        0.24690    0.96880    0.99000    1.000
    H12      H        0.23120    0.96890    0.82530    1.000
    C18      C        0.28920    0.87510    0.49400    1.000
    O4       O        0.34600    0.87500    0.51900    1.000
    C19      C        0.30680    0.00650    0.19200    1.000
    H13      H        0.33110    0.03170    0.16440    1.000
    C20      C        0.32100    0.96090    0.31400    1.000
    H14      H        0.35420    0.95490    0.36860    1.000
    C21      C        0.23140    0.92950    0.27200    1.000
    H15      H        0.20690    0.90440    0.29800    1.000
    C22      C        0.22170    0.97640    0.15300    1.000
    H16      H        0.18850    0.98260    0.09770    1.000
    Zn2      Zn       0.77419    0.71467    0.37220    1.000
    O5       O        0.72000    0.74990    0.54100    1.000
    H17      H        0.69890    0.76110    0.42770    1.000
    N3       N        0.75520    0.64260    0.36900    1.000
    C23      C        0.77120    0.60650    0.52500    1.000
    H18      H        0.79760    0.61030    0.64630    1.000
    N4       N        0.74480    0.56260    0.49000    1.000
    C24      C        0.71500    0.61920    0.22400    1.000
    O6       O        0.77270    0.33400    0.92000    1.000
    C25      C        0.68550    0.64190    0.03100    1.000
    H19      H        0.69070    0.67570    0.98460    1.000
    O7       O        0.82080    0.37620    0.21500    1.000
    C26      C        0.64800    0.61340    0.90900    1.000
    C27      C        0.61740    0.63410    0.71500    1.000
    H20      H        0.62230    0.66790    0.66700    1.000
    C28      C        0.57950    0.60630    0.59000    1.000
    H21      H        0.55940    0.62100    0.45990    1.000
    C29      C        0.57250    0.55590    0.66500    1.000
    H22      H        0.54740    0.53630    0.58520    1.000
    C30      C        0.60320    0.53510    0.86000    1.000
    H23      H        0.59820    0.50140    0.90880    1.000
    C31      C        0.64100    0.56310    0.98400    1.000
    C32      C        0.67010    0.54030    0.17700    1.000
    H24      H        0.66570    0.50610    0.21870    1.000
    C33      C        0.70610    0.56960    0.30600    1.000
    C34      C        0.75760    0.51450    0.61100    1.000
    C35      C        0.78240    0.42470    0.84800    1.000
    C36      C        0.78110    0.51430    0.85500    1.000
    H25      H        0.78830    0.54510    0.93750    1.000
    C37      C        0.79390    0.46940    0.97800    1.000
    H26      H        0.80970    0.46920    0.14270    1.000
    C38      C        0.75900    0.42310    0.60600    1.000
    H27      H        0.75150    0.39230    0.52410    1.000
    C39      C        0.74690    0.46880    0.49000    1.000
    H28      H        0.73120    0.46890    0.32530    1.000
    C40      C        0.78920    0.37510    0.99400    1.000
    O8       O        0.84600    0.37500    0.01900    1.000
    C41      C        0.80680    0.50650    0.69200    1.000
    H29      H        0.83110    0.53170    0.66440    1.000
    C42      C        0.82100    0.46090    0.81400    1.000
    H30      H        0.85420    0.45490    0.86860    1.000
    C43      C        0.73140    0.42950    0.77200    1.000
    H31      H        0.70690    0.40440    0.79800    1.000
    C44      C        0.72170    0.47640    0.65300    1.000
    H32      H        0.68850    0.48260    0.59770    1.000
    Zn3      Zn       0.72581    0.78533    0.87220    1.000
    O9       O        0.78000    0.75010    0.04100    1.000
    H33      H        0.80110    0.73890    0.92770    1.000
    N5       N        0.74480    0.85740    0.86900    1.000
    C45      C        0.72880    0.89350    0.02500    1.000
    H34      H        0.70240    0.88970    0.14630    1.000
    N6       N        0.75520    0.93740    0.99000    1.000
    C46      C        0.78500    0.88080    0.72400    1.000
    O10      O        0.72730    0.16600    0.42000    1.000
    C47      C        0.81450    0.85810    0.53100    1.000
    H35      H        0.80930    0.82430    0.48460    1.000
    O11      O        0.67920    0.12380    0.71500    1.000
    C48      C        0.85200    0.88660    0.40900    1.000
    C49      C        0.88260    0.86590    0.21500    1.000
    H36      H        0.87770    0.83210    0.16700    1.000
    C50      C        0.92050    0.89370    0.09000    1.000
    H37      H        0.94060    0.87900    0.95990    1.000
    C51      C        0.92750    0.94410    0.16500    1.000
    H38      H        0.95260    0.96370    0.08520    1.000
    C52      C        0.89680    0.96490    0.36000    1.000
    H39      H        0.90180    0.99860    0.40880    1.000
    C53      C        0.85900    0.93690    0.48400    1.000
    C54      C        0.82990    0.95970    0.67700    1.000
    H40      H        0.83430    0.99390    0.71870    1.000
    C55      C        0.79390    0.93040    0.80600    1.000
    C56      C        0.74240    0.98550    0.11100    1.000
    C57      C        0.71760    0.07530    0.34800    1.000
    C58      C        0.71890    0.98570    0.35500    1.000
    H41      H        0.71170    0.95490    0.43750    1.000
    C59      C        0.70610    0.03060    0.47800    1.000
    H42      H        0.69030    0.03080    0.64270    1.000
    C60      C        0.74100    0.07690    0.10600    1.000
    H43      H        0.74850    0.10770    0.02410    1.000
    C61      C        0.75310    0.03120    0.99000    1.000
    H44      H        0.76880    0.03110    0.82530    1.000
    C62      C        0.71080    0.12490    0.49400    1.000
    O12      O        0.65400    0.12500    0.51900    1.000
    C63      C        0.69320    0.99350    0.19200    1.000
    H45      H        0.66890    0.96830    0.16440    1.000
    C64      C        0.67900    0.03910    0.31400    1.000
    H46      H        0.64580    0.04510    0.36860    1.000
    C65      C        0.76860    0.07050    0.27200    1.000
    H47      H        0.79310    0.09560    0.29800    1.000
    C66      C        0.77830    0.02360    0.15300    1.000
    H48      H        0.81150    0.01740    0.09770    1.000
    Zn4      Zn       0.22581    0.28533    0.37220    1.000
    O13      O        0.28000    0.25010    0.54100    1.000
    H49      H        0.30110    0.23890    0.42770    1.000
    N7       N        0.24480    0.35740    0.36900    1.000
    C67      C        0.22880    0.39350    0.52500    1.000
    H50      H        0.20240    0.38970    0.64630    1.000
    N8       N        0.25520    0.43740    0.49000    1.000
    C68      C        0.28500    0.38080    0.22400    1.000
    O14      O        0.22730    0.66600    0.92000    1.000
    C69      C        0.31450    0.35810    0.03100    1.000
    H51      H        0.30930    0.32430    0.98460    1.000
    O15      O        0.17920    0.62380    0.21500    1.000
    C70      C        0.35200    0.38660    0.90900    1.000
    C71      C        0.38260    0.36590    0.71500    1.000
    H52      H        0.37770    0.33210    0.66700    1.000
    C72      C        0.42050    0.39370    0.59000    1.000
    H53      H        0.44060    0.37900    0.45990    1.000
    C73      C        0.42750    0.44410    0.66500    1.000
    H54      H        0.45260    0.46370    0.58520    1.000
    C74      C        0.39680    0.46490    0.86000    1.000
    H55      H        0.40180    0.49860    0.90880    1.000
    C75      C        0.35900    0.43690    0.98400    1.000
    C76      C        0.32990    0.45970    0.17700    1.000
    H56      H        0.33430    0.49390    0.21870    1.000
    C77      C        0.29390    0.43040    0.30600    1.000
    C78      C        0.24240    0.48550    0.61100    1.000
    C79      C        0.21760    0.57530    0.84800    1.000
    C80      C        0.21890    0.48570    0.85500    1.000
    H57      H        0.21170    0.45490    0.93750    1.000
    C81      C        0.20610    0.53060    0.97800    1.000
    H58      H        0.19030    0.53080    0.14270    1.000
    C82      C        0.24100    0.57690    0.60600    1.000
    H59      H        0.24850    0.60770    0.52410    1.000
    C83      C        0.25310    0.53120    0.49000    1.000
    H60      H        0.26880    0.53110    0.32530    1.000
    C84      C        0.21080    0.62490    0.99400    1.000
    O16      O        0.15400    0.62500    0.01900    1.000
    C85      C        0.19320    0.49350    0.69200    1.000
    H61      H        0.16890    0.46830    0.66440    1.000
    C86      C        0.17900    0.53910    0.81400    1.000
    H62      H        0.14580    0.54510    0.86860    1.000
    C87      C        0.26860    0.57050    0.77200    1.000
    H63      H        0.29310    0.59560    0.79800    1.000
    C88      C        0.27830    0.52360    0.65300    1.000
    H64      H        0.31150    0.51740    0.59770    1.000
    Zn5      Zn       0.21467    0.72581    0.12780    1.000
    O17      O        0.24990    0.78000    0.95900    1.000
    H65      H        0.26110    0.80110    0.07230    1.000
    N9       N        0.14260    0.74480    0.13100    1.000
    C89      C        0.10650    0.72880    0.97500    1.000
    H66      H        0.11030    0.70240    0.85370    1.000
    N10      N        0.06260    0.75520    0.01000    1.000
    C90      C        0.11920    0.78500    0.27600    1.000
    O18      O        0.83400    0.72730    0.58000    1.000
    C91      C        0.14190    0.81450    0.46900    1.000
    H67      H        0.17570    0.80930    0.51540    1.000
    O19      O        0.87620    0.67920    0.28500    1.000
    C92      C        0.11340    0.85200    0.59100    1.000
    C93      C        0.13410    0.88260    0.78500    1.000
    H68      H        0.16790    0.87770    0.83300    1.000
    C94      C        0.10630    0.92050    0.91000    1.000
    H69      H        0.12100    0.94060    0.04010    1.000
    C95      C        0.05590    0.92750    0.83500    1.000
    H70      H        0.03630    0.95260    0.91480    1.000
    C96      C        0.03510    0.89680    0.64000    1.000
    H71      H        0.00140    0.90180    0.59120    1.000
    C97      C        0.06310    0.85900    0.51600    1.000
    C98      C        0.04030    0.82990    0.32300    1.000
    H72      H        0.00610    0.83430    0.28130    1.000
    C99      C        0.06960    0.79390    0.19400    1.000
    C100     C        0.01450    0.74240    0.88900    1.000
    C101     C        0.92470    0.71760    0.65200    1.000
    C102     C        0.01430    0.71890    0.64500    1.000
    H73      H        0.04510    0.71170    0.56250    1.000
    C103     C        0.96940    0.70610    0.52200    1.000
    H74      H        0.96920    0.69030    0.35730    1.000
    C104     C        0.92310    0.74100    0.89400    1.000
    H75      H        0.89230    0.74850    0.97590    1.000
    C105     C        0.96880    0.75310    0.01000    1.000
    H76      H        0.96890    0.76880    0.17470    1.000
    C106     C        0.87510    0.71080    0.50600    1.000
    O20      O        0.87500    0.65400    0.48100    1.000
    C107     C        0.00650    0.69320    0.80800    1.000
    H77      H        0.03170    0.66890    0.83560    1.000
    C108     C        0.96090    0.67900    0.68600    1.000
    H78      H        0.95490    0.64580    0.63140    1.000
    C109     C        0.92950    0.76860    0.72800    1.000
    H79      H        0.90440    0.79310    0.70200    1.000
    C110     C        0.97640    0.77830    0.84700    1.000
    H80      H        0.98260    0.81150    0.90230    1.000
    Zn6      Zn       0.71467    0.22581    0.62780    1.000
    O21      O        0.74990    0.28000    0.45900    1.000
    H81      H        0.76110    0.30110    0.57230    1.000
    N11      N        0.64260    0.24480    0.63100    1.000
    C111     C        0.60650    0.22880    0.47500    1.000
    H82      H        0.61030    0.20240    0.35370    1.000
    N12      N        0.56260    0.25520    0.51000    1.000
    C112     C        0.61920    0.28500    0.77600    1.000
    O22      O        0.33400    0.22730    0.08000    1.000
    C113     C        0.64190    0.31450    0.96900    1.000
    H83      H        0.67570    0.30930    0.01540    1.000
    O23      O        0.37620    0.17920    0.78500    1.000
    C114     C        0.61340    0.35200    0.09100    1.000
    C115     C        0.63410    0.38260    0.28500    1.000
    H84      H        0.66790    0.37770    0.33300    1.000
    C116     C        0.60630    0.42050    0.41000    1.000
    H85      H        0.62100    0.44060    0.54010    1.000
    C117     C        0.55590    0.42750    0.33500    1.000
    H86      H        0.53630    0.45260    0.41480    1.000
    C118     C        0.53510    0.39680    0.14000    1.000
    H87      H        0.50140    0.40180    0.09120    1.000
    C119     C        0.56310    0.35900    0.01600    1.000
    C120     C        0.54030    0.32990    0.82300    1.000
    H88      H        0.50610    0.33430    0.78130    1.000
    C121     C        0.56960    0.29390    0.69400    1.000
    C122     C        0.51450    0.24240    0.38900    1.000
    C123     C        0.42470    0.21760    0.15200    1.000
    C124     C        0.51430    0.21890    0.14500    1.000
    H89      H        0.54510    0.21170    0.06250    1.000
    C125     C        0.46940    0.20610    0.02200    1.000
    H90      H        0.46920    0.19030    0.85730    1.000
    C126     C        0.42310    0.24100    0.39400    1.000
    H91      H        0.39230    0.24850    0.47590    1.000
    C127     C        0.46880    0.25310    0.51000    1.000
    H92      H        0.46890    0.26880    0.67470    1.000
    C128     C        0.37510    0.21080    0.00600    1.000
    O24      O        0.37500    0.15400    0.98100    1.000
    C129     C        0.50650    0.19320    0.30800    1.000
    H93      H        0.53170    0.16890    0.33560    1.000
    C130     C        0.46090    0.17900    0.18600    1.000
    H94      H        0.45490    0.14580    0.13140    1.000
    C131     C        0.42950    0.26860    0.22800    1.000
    H95      H        0.40440    0.29310    0.20200    1.000
    C132     C        0.47640    0.27830    0.34700    1.000
    H96      H        0.48260    0.31150    0.40230    1.000
    Zn7      Zn       0.78533    0.27419    0.12780    1.000
    O25      O        0.75010    0.22000    0.95900    1.000
    H97      H        0.73890    0.19890    0.07230    1.000
    N13      N        0.85740    0.25520    0.13100    1.000
    C133     C        0.89350    0.27120    0.97500    1.000
    H98      H        0.88970    0.29760    0.85370    1.000
    N14      N        0.93740    0.24480    0.01000    1.000
    C134     C        0.88080    0.21500    0.27600    1.000
    O26      O        0.16600    0.27270    0.58000    1.000
    C135     C        0.85810    0.18550    0.46900    1.000
    H99      H        0.82430    0.19070    0.51540    1.000
    O27      O        0.12380    0.32080    0.28500    1.000
    C136     C        0.88660    0.14800    0.59100    1.000
    C137     C        0.86590    0.11740    0.78500    1.000
    H100     H        0.83210    0.12230    0.83300    1.000
    C138     C        0.89370    0.07950    0.91000    1.000
    H101     H        0.87900    0.05940    0.04010    1.000
    C139     C        0.94410    0.07250    0.83500    1.000
    H102     H        0.96370    0.04740    0.91480    1.000
    C140     C        0.96490    0.10320    0.64000    1.000
    H103     H        0.99860    0.09820    0.59120    1.000
    C141     C        0.93690    0.14100    0.51600    1.000
    C142     C        0.95970    0.17010    0.32300    1.000
    H104     H        0.99390    0.16570    0.28130    1.000
    C143     C        0.93040    0.20610    0.19400    1.000
    C144     C        0.98550    0.25760    0.88900    1.000
    C145     C        0.07530    0.28240    0.65200    1.000
    C146     C        0.98570    0.28110    0.64500    1.000
    H105     H        0.95490    0.28830    0.56250    1.000
    C147     C        0.03060    0.29390    0.52200    1.000
    H106     H        0.03080    0.30970    0.35730    1.000
    C148     C        0.07690    0.25900    0.89400    1.000
    H107     H        0.10770    0.25150    0.97590    1.000
    C149     C        0.03120    0.24690    0.01000    1.000
    H108     H        0.03110    0.23120    0.17470    1.000
    C150     C        0.12490    0.28920    0.50600    1.000
    O28      O        0.12500    0.34600    0.48100    1.000
    C151     C        0.99350    0.30680    0.80800    1.000
    H109     H        0.96830    0.33110    0.83560    1.000
    C152     C        0.03910    0.32100    0.68600    1.000
    H110     H        0.04510    0.35420    0.63140    1.000
    C153     C        0.07050    0.23140    0.72800    1.000
    H111     H        0.09560    0.20690    0.70200    1.000
    C154     C        0.02360    0.22170    0.84700    1.000
    H112     H        0.01740    0.18850    0.90230    1.000
    Zn8      Zn       0.28533    0.77419    0.62780    1.000
    O29      O        0.25010    0.72000    0.45900    1.000
    H113     H        0.23890    0.69890    0.57230    1.000
    N15      N        0.35740    0.75520    0.63100    1.000
    C155     C        0.39350    0.77120    0.47500    1.000
    H114     H        0.38970    0.79760    0.35370    1.000
    N16      N        0.43740    0.74480    0.51000    1.000
    C156     C        0.38080    0.71500    0.77600    1.000
    O30      O        0.66600    0.77270    0.08000    1.000
    C157     C        0.35810    0.68550    0.96900    1.000
    H115     H        0.32430    0.69070    0.01540    1.000
    O31      O        0.62380    0.82080    0.78500    1.000
    C158     C        0.38660    0.64800    0.09100    1.000
    C159     C        0.36590    0.61740    0.28500    1.000
    H116     H        0.33210    0.62230    0.33300    1.000
    C160     C        0.39370    0.57950    0.41000    1.000
    H117     H        0.37900    0.55940    0.54010    1.000
    C161     C        0.44410    0.57250    0.33500    1.000
    H118     H        0.46370    0.54740    0.41480    1.000
    C162     C        0.46490    0.60320    0.14000    1.000
    H119     H        0.49860    0.59820    0.09120    1.000
    C163     C        0.43690    0.64100    0.01600    1.000
    C164     C        0.45970    0.67010    0.82300    1.000
    H120     H        0.49390    0.66570    0.78130    1.000
    C165     C        0.43040    0.70610    0.69400    1.000
    C166     C        0.48550    0.75760    0.38900    1.000
    C167     C        0.57530    0.78240    0.15200    1.000
    C168     C        0.48570    0.78110    0.14500    1.000
    H121     H        0.45490    0.78830    0.06250    1.000
    C169     C        0.53060    0.79390    0.02200    1.000
    H122     H        0.53080    0.80970    0.85730    1.000
    C170     C        0.57690    0.75900    0.39400    1.000
    H123     H        0.60770    0.75150    0.47590    1.000
    C171     C        0.53120    0.74690    0.51000    1.000
    H124     H        0.53110    0.73120    0.67470    1.000
    C172     C        0.62490    0.78920    0.00600    1.000
    O32      O        0.62500    0.84600    0.98100    1.000
    C173     C        0.49350    0.80680    0.30800    1.000
    H125     H        0.46830    0.83110    0.33560    1.000
    C174     C        0.53910    0.82100    0.18600    1.000
    H126     H        0.54510    0.85420    0.13140    1.000
    C175     C        0.57050    0.73140    0.22800    1.000
    H127     H        0.59560    0.70690    0.20200    1.000
    C176     C        0.52360    0.72170    0.34700    1.000
    H128     H        0.51740    0.68850    0.40230    1.000
