# CIF file generated by openbabel 3.1.0, see https://openbabel.org
data_I
_chemical_name_common 'image0'
_cell_length_a 8.619
_cell_length_b 17.959
_cell_length_c 8.135
_cell_angle_alpha 90
_cell_angle_beta 110.828
_cell_angle_gamma 90
_space_group_name_H-M_alt 'P 1'
_space_group_name_Hall 'P 1'
loop_
    _symmetry_equiv_pos_as_xyz
    x,y,z
loop_
    _atom_site_label
    _atom_site_type_symbol
    _atom_site_fract_x
    _atom_site_fract_y
    _atom_site_fract_z
    _atom_site_occupancy
    Pr1      Pr       0.21346    0.52231    0.74888    1.000
    S1       S        0.80418    0.76485    0.62510    1.000
    O1       O        0.88550    0.56130    0.50490    1.000
    O2       O        0.02370    0.62880    0.73860    1.000
    O3       O        0.39890    0.88180    0.40620    1.000
    O4       O        0.64750    0.91710    0.58910    1.000
    O5       O        0.20070    0.53520    0.05400    1.000
    O6       O        0.02770    0.54010    0.20370    1.000
    O7       O        0.48960    0.50700    0.68640    1.000
    H1       H        0.58230    0.49940    0.76840    1.000
    H2       H        0.47320    0.55370    0.67780    1.000
    C1       C        0.76710    0.67510    0.54480    1.000
    C2       C        0.60800    0.66780    0.42660    1.000
    H3       H        0.56530    0.62340    0.36950    1.000
    C3       C        0.51610    0.73410    0.40090    1.000
    H4       H        0.40590    0.73820    0.32670    1.000
    C4       C        0.60640    0.79180    0.49660    1.000
    C5       C        0.89810    0.61850    0.59860    1.000
    C6       C        0.54710    0.86930    0.49670    1.000
    C7       C        0.06600    0.52150    0.07480    1.000
    Pr2      Pr       0.78654    0.02231    0.75112    1.000
    S2       S        0.19582    0.26485    0.87490    1.000
    O8       O        0.11450    0.06130    0.99510    1.000
    O9       O        0.97630    0.12880    0.76140    1.000
    O10      O        0.60110    0.38180    0.09380    1.000
    O11      O        0.35250    0.41710    0.91090    1.000
    O12      O        0.79930    0.03520    0.44600    1.000
    O13      O        0.97230    0.04010    0.29630    1.000
    O14      O        0.51040    0.00700    0.81360    1.000
    H5       H        0.41770    0.99940    0.73160    1.000
    H6       H        0.52680    0.05370    0.82220    1.000
    C8       C        0.23290    0.17510    0.95520    1.000
    C9       C        0.39200    0.16780    0.07340    1.000
    H7       H        0.43470    0.12340    0.13050    1.000
    C10      C        0.48390    0.23410    0.09910    1.000
    H8       H        0.59410    0.23820    0.17330    1.000
    C11      C        0.39360    0.29180    0.00340    1.000
    C12      C        0.10190    0.11850    0.90140    1.000
    C13      C        0.45290    0.36930    0.00330    1.000
    C14      C        0.93400    0.02150    0.42520    1.000
    Pr3      Pr       0.78654    0.47769    0.25112    1.000
    S3       S        0.19582    0.23515    0.37490    1.000
    O15      O        0.11450    0.43870    0.49510    1.000
    O16      O        0.97630    0.37120    0.26140    1.000
    O17      O        0.60110    0.11820    0.59380    1.000
    O18      O        0.35250    0.08290    0.41090    1.000
    O19      O        0.79930    0.46480    0.94600    1.000
    O20      O        0.97230    0.45990    0.79630    1.000
    O21      O        0.51040    0.49300    0.31360    1.000
    H9       H        0.41770    0.50060    0.23160    1.000
    H10      H        0.52680    0.44630    0.32220    1.000
    C15      C        0.23290    0.32490    0.45520    1.000
    C16      C        0.39200    0.33220    0.57340    1.000
    H11      H        0.43470    0.37660    0.63050    1.000
    C17      C        0.48390    0.26590    0.59910    1.000
    H12      H        0.59410    0.26180    0.67330    1.000
    C18      C        0.39360    0.20820    0.50340    1.000
    C19      C        0.10190    0.38150    0.40140    1.000
    C20      C        0.45290    0.13070    0.50330    1.000
    C21      C        0.93400    0.47850    0.92520    1.000
    Pr4      Pr       0.21346    0.97769    0.24888    1.000
    S4       S        0.80418    0.73515    0.12510    1.000
    O22      O        0.88550    0.93870    0.00490    1.000
    O23      O        0.02370    0.87120    0.23860    1.000
    O24      O        0.39890    0.61820    0.90620    1.000
    O25      O        0.64750    0.58290    0.08910    1.000
    O26      O        0.20070    0.96480    0.55400    1.000
    O27      O        0.02770    0.95990    0.70370    1.000
    O28      O        0.48960    0.99300    0.18640    1.000
    H13      H        0.58230    0.00060    0.26840    1.000
    H14      H        0.47320    0.94630    0.17780    1.000
    C22      C        0.76710    0.82490    0.04480    1.000
    C23      C        0.60800    0.83220    0.92660    1.000
    H15      H        0.56530    0.87660    0.86950    1.000
    C24      C        0.51610    0.76590    0.90090    1.000
    H16      H        0.40590    0.76180    0.82670    1.000
    C25      C        0.60640    0.70820    0.99660    1.000
    C26      C        0.89810    0.88150    0.09860    1.000
    C27      C        0.54710    0.63070    0.99670    1.000
    C28      C        0.06600    0.97850    0.57480    1.000
