# CIF file generated by openbabel 3.1.0, see https://openbabel.org
data_I
_chemical_name_common 'image0'
_cell_length_a 10.415
_cell_length_b 10.226
_cell_length_c 8.7198
_cell_angle_alpha 90
_cell_angle_beta 109.45
_cell_angle_gamma 90
_space_group_name_H-M_alt 'P 1'
_space_group_name_Hall 'P 1'
loop_
    _symmetry_equiv_pos_as_xyz
    x,y,z
loop_
    _atom_site_label
    _atom_site_type_symbol
    _atom_site_fract_x
    _atom_site_fract_y
    _atom_site_fract_z
    _atom_site_occupancy
    O1       O        0.70210    0.08170    0.27440    1.000
    O2       O        0.57550    0.09780    0.49330    1.000
    C1       C        0.77100    0.12990    0.41020    1.000
    C2       C        0.69530    0.14300    0.53570    1.000
    O3       O        0.89220    0.16600    0.45450    1.000
    O4       O        0.75450    0.19400    0.66980    1.000
    O5       O        0.11170    0.36730    0.56460    1.000
    O6       O        0.87950    0.46140    0.59210    1.000
    C3       C        0.06790    0.47290    0.49230    1.000
    O7       O        0.29790    0.08170    0.22560    1.000
    O8       O        0.42450    0.09780    0.00670    1.000
    C4       C        0.22900    0.12990    0.08980    1.000
    C5       C        0.30470    0.14300    0.96430    1.000
    O9       O        0.10780    0.16600    0.04550    1.000
    O10      O        0.24550    0.19400    0.83020    1.000
    O11      O        0.88830    0.36730    0.93540    1.000
    O12      O        0.12050    0.46140    0.90790    1.000
    C6       C        0.93210    0.47290    0.00770    1.000
    O13      O        0.29790    0.91830    0.72560    1.000
    O14      O        0.42450    0.90220    0.50670    1.000
    C7       C        0.22900    0.87010    0.58980    1.000
    C8       C        0.30470    0.85700    0.46430    1.000
    O15      O        0.10780    0.83400    0.54550    1.000
    O16      O        0.24550    0.80600    0.33020    1.000
    O17      O        0.88830    0.63270    0.43540    1.000
    O18      O        0.12050    0.53860    0.40790    1.000
    C9       C        0.93210    0.52710    0.50770    1.000
    O19      O        0.70210    0.91830    0.77440    1.000
    O20      O        0.57550    0.90220    0.99330    1.000
    C10      C        0.77100    0.87010    0.91020    1.000
    C11      C        0.69530    0.85700    0.03570    1.000
    O21      O        0.89220    0.83400    0.95450    1.000
    O22      O        0.75450    0.80600    0.16980    1.000
    O23      O        0.11170    0.63270    0.06460    1.000
    O24      O        0.87950    0.53860    0.09210    1.000
    C12      C        0.06790    0.52710    0.99230    1.000
    La1      La       0.50000    0.93196    0.25000    1.000
    La2      La       0.50000    0.06804    0.75000    1.000
    La3      La       0.00000    0.26379    0.75000    1.000
    La4      La       0.00000    0.73621    0.25000    1.000
