# CIF file generated by openbabel 3.1.0, see https://openbabel.org
data_I
_chemical_name_common 'image0'
_cell_length_a 10.1353
_cell_length_b 17.3501
_cell_length_c 11.3594
_cell_angle_alpha 90
_cell_angle_beta 109.798
_cell_angle_gamma 90
_space_group_name_H-M_alt 'P 1'
_space_group_name_Hall 'P 1'
loop_
    _symmetry_equiv_pos_as_xyz
    x,y,z
loop_
    _atom_site_label
    _atom_site_type_symbol
    _atom_site_fract_x
    _atom_site_fract_y
    _atom_site_fract_z
    _atom_site_occupancy
    Dy1      Dy       0.00801    0.49312    0.68018    1.000
    O1       O        0.22760    0.51499    0.65520    1.000
    O2       O        0.85590    0.58307    0.72460    1.000
    O3       O        0.20920    0.54737    0.45850    1.000
    O4       O        0.91100    0.43243    0.81680    1.000
    N1       N        0.23080    0.53040    0.90830    1.000
    O5       O        0.05990    0.13947    0.15830    1.000
    O6       O        0.14500    0.58142    0.84350    1.000
    O7       O        0.02700    0.08401    0.97630    1.000
    N2       N        0.71700    0.57514    0.69000    1.000
    O8       O        0.33460    0.54783    0.99550    1.000
    N3       N        0.94590    0.36340    0.86940    1.000
    C1       C        0.63490    0.60160    0.57600    1.000
    H1       H        0.67480    0.62660    0.52390    1.000
    C2       C        0.03740    0.14350    0.04240    1.000
    C3       C        0.51830    0.53190    0.73470    1.000
    H2       H        0.48010    0.50970    0.79040    1.000
    C4       C        0.49250    0.59090    0.53860    1.000
    H3       H        0.43640    0.60790    0.45990    1.000
    C5       C        0.93680    0.22820    0.85280    1.000
    H4       H        0.90980    0.18420    0.80360    1.000
    C6       C        0.43030    0.55510    0.61640    1.000
    C7       C        0.27640    0.53790    0.57410    1.000
    O9       O        0.20110    0.46079    0.87690    1.000
    C8       C        0.66070    0.54180    0.76900    1.000
    H5       H        0.71870    0.52530    0.84730    1.000
    C9       C        0.01020    0.22120    0.98010    1.000
    C10      C        0.01930    0.35880    0.99280    1.000
    H6       H        0.04880    0.40360    0.03910    1.000
    C11      C        0.05090    0.28820    0.05050    1.000
    H7       H        0.09910    0.28520    0.13610    1.000
    C12      C        0.90420    0.29910    0.79980    1.000
    H8       H        0.85280    0.30340    0.71500    1.000
    Dy2      Dy       0.99199    0.99312    0.81982    1.000
    O10      O        0.77240    0.01499    0.84480    1.000
    O11      O        0.14410    0.08307    0.77540    1.000
    O12      O        0.79080    0.04737    0.04150    1.000
    O13      O        0.08900    0.93243    0.68320    1.000
    N4       N        0.76920    0.03040    0.59170    1.000
    O14      O        0.94010    0.63947    0.34170    1.000
    O15      O        0.85500    0.08142    0.65650    1.000
    O16      O        0.97300    0.58401    0.52370    1.000
    N5       N        0.28300    0.07514    0.81000    1.000
    O17      O        0.66540    0.04783    0.50450    1.000
    N6       N        0.05410    0.86340    0.63060    1.000
    C13      C        0.36510    0.10160    0.92400    1.000
    H9       H        0.32520    0.12660    0.97610    1.000
    C14      C        0.96260    0.64350    0.45760    1.000
    C15      C        0.48170    0.03190    0.76530    1.000
    H10      H        0.51990    0.00970    0.70960    1.000
    C16      C        0.50750    0.09090    0.96140    1.000
    H11      H        0.56360    0.10790    0.04010    1.000
    C17      C        0.06320    0.72820    0.64720    1.000
    H12      H        0.09020    0.68420    0.69640    1.000
    C18      C        0.56970    0.05510    0.88360    1.000
    C19      C        0.72360    0.03790    0.92590    1.000
    O18      O        0.79890    0.96079    0.62310    1.000
    C20      C        0.33930    0.04180    0.73100    1.000
    H13      H        0.28130    0.02530    0.65270    1.000
    C21      C        0.98980    0.72120    0.51990    1.000
    C22      C        0.98070    0.85880    0.50720    1.000
    H14      H        0.95120    0.90360    0.46090    1.000
    C23      C        0.94910    0.78820    0.44950    1.000
    H15      H        0.90090    0.78520    0.36390    1.000
    C24      C        0.09580    0.79910    0.70020    1.000
    H16      H        0.14720    0.80340    0.78500    1.000
    Dy3      Dy       0.99199    0.50688    0.31982    1.000
    O19      O        0.77240    0.48501    0.34480    1.000
    O20      O        0.14410    0.41693    0.27540    1.000
    O21      O        0.79080    0.45263    0.54150    1.000
    O22      O        0.08900    0.56757    0.18320    1.000
    N7       N        0.76920    0.46960    0.09170    1.000
    O23      O        0.94010    0.86053    0.84170    1.000
    O24      O        0.85500    0.41858    0.15650    1.000
    O25      O        0.97300    0.91599    0.02370    1.000
    N8       N        0.28300    0.42486    0.31000    1.000
    O26      O        0.66540    0.45217    0.00450    1.000
    N9       N        0.05410    0.63660    0.13060    1.000
    C25      C        0.36510    0.39840    0.42400    1.000
    H17      H        0.32520    0.37340    0.47610    1.000
    C26      C        0.96260    0.85650    0.95760    1.000
    C27      C        0.48170    0.46810    0.26530    1.000
    H18      H        0.51990    0.49030    0.20960    1.000
    C28      C        0.50750    0.40910    0.46140    1.000
    H19      H        0.56360    0.39210    0.54010    1.000
    C29      C        0.06320    0.77180    0.14720    1.000
    H20      H        0.09020    0.81580    0.19640    1.000
    C30      C        0.56970    0.44490    0.38360    1.000
    C31      C        0.72360    0.46210    0.42590    1.000
    O27      O        0.79890    0.53921    0.12310    1.000
    C32      C        0.33930    0.45820    0.23100    1.000
    H21      H        0.28130    0.47470    0.15270    1.000
    C33      C        0.98980    0.77880    0.01990    1.000
    C34      C        0.98070    0.64120    0.00720    1.000
    H22      H        0.95120    0.59640    0.96090    1.000
    C35      C        0.94910    0.71180    0.94950    1.000
    H23      H        0.90090    0.71480    0.86390    1.000
    C36      C        0.09580    0.70090    0.20020    1.000
    H24      H        0.14720    0.69660    0.28500    1.000
    Dy4      Dy       0.00801    0.00688    0.18018    1.000
    O28      O        0.22760    0.98501    0.15520    1.000
    O29      O        0.85590    0.91693    0.22460    1.000
    O30      O        0.20920    0.95263    0.95850    1.000
    O31      O        0.91100    0.06757    0.31680    1.000
    N10      N        0.23080    0.96960    0.40830    1.000
    O32      O        0.05990    0.36053    0.65830    1.000
    O33      O        0.14500    0.91858    0.34350    1.000
    O34      O        0.02700    0.41599    0.47630    1.000
    N11      N        0.71700    0.92486    0.19000    1.000
    O35      O        0.33460    0.95217    0.49550    1.000
    N12      N        0.94590    0.13660    0.36940    1.000
    C37      C        0.63490    0.89840    0.07600    1.000
    H25      H        0.67480    0.87340    0.02390    1.000
    C38      C        0.03740    0.35650    0.54240    1.000
    C39      C        0.51830    0.96810    0.23470    1.000
    H26      H        0.48010    0.99030    0.29040    1.000
    C40      C        0.49250    0.90910    0.03860    1.000
    H27      H        0.43640    0.89210    0.95990    1.000
    C41      C        0.93680    0.27180    0.35280    1.000
    H28      H        0.90980    0.31580    0.30360    1.000
    C42      C        0.43030    0.94490    0.11640    1.000
    C43      C        0.27640    0.96210    0.07410    1.000
    O36      O        0.20110    0.03921    0.37690    1.000
    C44      C        0.66070    0.95820    0.26900    1.000
    H29      H        0.71870    0.97470    0.34730    1.000
    C45      C        0.01020    0.27880    0.48010    1.000
    C46      C        0.01930    0.14120    0.49280    1.000
    H30      H        0.04880    0.09640    0.53910    1.000
    C47      C        0.05090    0.21180    0.55050    1.000
    H31      H        0.09910    0.21480    0.63610    1.000
    C48      C        0.90420    0.20090    0.29980    1.000
    H32      H        0.85280    0.19660    0.21500    1.000
