# CIF file generated by openbabel 3.1.0, see https://openbabel.org
data_I
_chemical_name_common 'image0'
_cell_length_a 19.7205
_cell_length_b 19.7205
_cell_length_c 22.9816
_cell_angle_alpha 90
_cell_angle_beta 90
_cell_angle_gamma 120
_space_group_name_H-M_alt 'P 1'
_space_group_name_Hall 'P 1'
loop_
    _symmetry_equiv_pos_as_xyz
    x,y,z
loop_
    _atom_site_label
    _atom_site_type_symbol
    _atom_site_fract_x
    _atom_site_fract_y
    _atom_site_fract_z
    _atom_site_occupancy
    Cd1      Cd       0.54984    0.86636    0.10229    1.000
    Cd2      Cd       0.53286    0.91442    0.93812    1.000
    S1       S        0.49970    0.79964    0.00374    1.000
    S2       S        0.67407    0.99724    0.08359    1.000
    S3       S        0.44629    0.89020    0.14813    1.000
    C1       C        0.55830    0.76080    0.98420    1.000
    C2       C        0.52070    0.68010    0.97700    1.000
    C3       C        0.56090    0.64560    0.95300    1.000
    C4       C        0.63860    0.69180    0.93620    1.000
    C5       C        0.67610    0.77260    0.94330    1.000
    C6       C        0.63600    0.80710    0.96730    1.000
    C7       C        0.73860    0.87660    0.21960    1.000
    C8       C        0.80830    0.91060    0.23100    1.000
    C9       C        0.85090    0.93260    0.18980    1.000
    C10      C        0.71860    0.03400    0.15200    1.000
    C11      C        0.79970    0.07080    0.15530    1.000
    C12      C        0.83750    0.10420    0.20740    1.000
    C13      C        0.79420    0.10070    0.25620    1.000
    C14      C        0.71300    0.06390    0.25280    1.000
    C15      C        0.67520    0.03060    0.20070    1.000
    C16      C        0.90960    0.14310    0.22330    1.000
    C17      C        0.37110    0.80320    0.18330    1.000
    C18      C        0.29220    0.77780    0.17480    1.000
    C19      C        0.23560    0.71160    0.20360    1.000
    C20      C        0.25790    0.67090    0.24100    1.000
    C21      C        0.33680    0.69630    0.24960    1.000
    C22      C        0.39340    0.76250    0.22080    1.000
    C23      C        0.14510    0.68060    0.19210    1.000
    S4       S        0.60250    0.77850    0.14850    1.000
    Cd3      Cd       0.13364    0.68348    0.76896    1.000
    Cd4      Cd       0.08558    0.61844    0.60479    1.000
    S5       S        0.20036    0.70006    0.67041    1.000
    S6       S        0.00276    0.67683    0.75026    1.000
    S7       S        0.10980    0.55609    0.81480    1.000
    C24      C        0.23920    0.79750    0.65087    1.000
    C25      C        0.31990    0.84060    0.64367    1.000
    C26      C        0.35440    0.91530    0.61967    1.000
    C27      C        0.30820    0.94680    0.60287    1.000
    C28      C        0.22740    0.90350    0.60997    1.000
    C29      C        0.19290    0.82890    0.63397    1.000
    C30      C        0.12340    0.86200    0.88627    1.000
    C31      C        0.08940    0.89770    0.89767    1.000
    C32      C        0.06740    0.91830    0.85647    1.000
    C33      C        0.96600    0.68460    0.81867    1.000
    C34      C        0.92920    0.72890    0.82197    1.000
    C35      C        0.89580    0.73330    0.87407    1.000
    C36      C        0.89930    0.69350    0.92287    1.000
    C37      C        0.93610    0.64910    0.91947    1.000
    C38      C        0.96940    0.64460    0.86737    1.000
    C39      C        0.85690    0.76650    0.88997    1.000
    C40      C        0.19680    0.56790    0.84997    1.000
    C41      C        0.22220    0.51440    0.84147    1.000
    C42      C        0.28840    0.52400    0.87027    1.000
    C43      C        0.32910    0.58700    0.90767    1.000
    C44      C        0.30370    0.64050    0.91627    1.000
    C45      C        0.23750    0.63090    0.88747    1.000
    C46      C        0.31940    0.46450    0.85877    1.000
    S8       S        0.22150    0.82400    0.81517    1.000
    Cd5      Cd       0.31652    0.45016    0.43562    1.000
    Cd6      Cd       0.38156    0.46714    0.27145    1.000
    S9       S        0.29994    0.50030    0.33707    1.000
    S10      S        0.32317    0.32593    0.41692    1.000
    S11      S        0.44391    0.55371    0.48146    1.000
    C47      C        0.20250    0.44170    0.31753    1.000
    C48      C        0.15940    0.47930    0.31033    1.000
    C49      C        0.08470    0.43910    0.28633    1.000
    C50      C        0.05320    0.36140    0.26953    1.000
    C51      C        0.09650    0.32390    0.27663    1.000
    C52      C        0.17110    0.36400    0.30063    1.000
    C53      C        0.13800    0.26140    0.55293    1.000
    C54      C        0.10230    0.19170    0.56433    1.000
    C55      C        0.08170    0.14910    0.52313    1.000
    C56      C        0.31540    0.28140    0.48533    1.000
    C57      C        0.27110    0.20030    0.48863    1.000
    C58      C        0.26670    0.16250    0.54073    1.000
    C59      C        0.30650    0.20580    0.58953    1.000
    C60      C        0.35090    0.28700    0.58613    1.000
    C61      C        0.35540    0.32480    0.53403    1.000
    C62      C        0.23350    0.09040    0.55663    1.000
    C63      C        0.43210    0.62890    0.51663    1.000
    C64      C        0.48560    0.70780    0.50813    1.000
    C65      C        0.47600    0.76440    0.53693    1.000
    C66      C        0.41300    0.74210    0.57433    1.000
    C67      C        0.35950    0.66320    0.58293    1.000
    C68      C        0.36910    0.60660    0.55413    1.000
    C69      C        0.53550    0.85490    0.52543    1.000
    S12      S        0.17600    0.39750    0.48183    1.000
    Cd7      Cd       0.45016    0.13364    0.10229    1.000
    Cd8      Cd       0.46714    0.08558    0.93812    1.000
    S13      S        0.50030    0.20036    0.00374    1.000
    S14      S        0.32593    0.00276    0.08359    1.000
    S15      S        0.55371    0.10980    0.14813    1.000
    C70      C        0.44170    0.23920    0.98420    1.000
    C71      C        0.47930    0.31990    0.97700    1.000
    C72      C        0.43910    0.35440    0.95300    1.000
    C73      C        0.36140    0.30820    0.93620    1.000
    C74      C        0.32390    0.22740    0.94330    1.000
    C75      C        0.36400    0.19290    0.96730    1.000
    C76      C        0.26140    0.12340    0.21960    1.000
    C77      C        0.19170    0.08940    0.23100    1.000
    C78      C        0.14910    0.06740    0.18980    1.000
    C79      C        0.28140    0.96600    0.15200    1.000
    C80      C        0.20030    0.92920    0.15530    1.000
    C81      C        0.16250    0.89580    0.20740    1.000
    C82      C        0.20580    0.89930    0.25620    1.000
    C83      C        0.28700    0.93610    0.25280    1.000
    C84      C        0.32480    0.96940    0.20070    1.000
    C85      C        0.09040    0.85690    0.22330    1.000
    C86      C        0.62890    0.19680    0.18330    1.000
    C87      C        0.70780    0.22220    0.17480    1.000
    C88      C        0.76440    0.28840    0.20360    1.000
    C89      C        0.74210    0.32910    0.24100    1.000
    C90      C        0.66320    0.30370    0.24960    1.000
    C91      C        0.60660    0.23750    0.22080    1.000
    C92      C        0.85490    0.31940    0.19210    1.000
    S16      S        0.39750    0.22150    0.14850    1.000
    Cd9      Cd       0.86636    0.31652    0.76896    1.000
    Cd10     Cd       0.91442    0.38156    0.60479    1.000
    S17      S        0.79964    0.29994    0.67041    1.000
    S18      S        0.99724    0.32317    0.75026    1.000
    S19      S        0.89020    0.44391    0.81480    1.000
    C93      C        0.76080    0.20250    0.65087    1.000
    C94      C        0.68010    0.15940    0.64367    1.000
    C95      C        0.64560    0.08470    0.61967    1.000
    C96      C        0.69180    0.05320    0.60287    1.000
    C97      C        0.77260    0.09650    0.60997    1.000
    C98      C        0.80710    0.17110    0.63397    1.000
    C99      C        0.87660    0.13800    0.88627    1.000
    C100     C        0.91060    0.10230    0.89767    1.000
    C101     C        0.93260    0.08170    0.85647    1.000
    C102     C        0.03400    0.31540    0.81867    1.000
    C103     C        0.07080    0.27110    0.82197    1.000
    C104     C        0.10420    0.26670    0.87407    1.000
    C105     C        0.10070    0.30650    0.92287    1.000
    C106     C        0.06390    0.35090    0.91947    1.000
    C107     C        0.03060    0.35540    0.86737    1.000
    C108     C        0.14310    0.23350    0.88997    1.000
    C109     C        0.80320    0.43210    0.84997    1.000
    C110     C        0.77780    0.48560    0.84147    1.000
    C111     C        0.71160    0.47600    0.87027    1.000
    C112     C        0.67090    0.41300    0.90767    1.000
    C113     C        0.69630    0.35950    0.91627    1.000
    C114     C        0.76250    0.36910    0.88747    1.000
    C115     C        0.68060    0.53550    0.85877    1.000
    S20      S        0.77850    0.17600    0.81517    1.000
    Cd11     Cd       0.68348    0.54984    0.43562    1.000
    Cd12     Cd       0.61844    0.53286    0.27145    1.000
    S21      S        0.70006    0.49970    0.33707    1.000
    S22      S        0.67683    0.67407    0.41692    1.000
    S23      S        0.55609    0.44629    0.48146    1.000
    C116     C        0.79750    0.55830    0.31753    1.000
    C117     C        0.84060    0.52070    0.31033    1.000
    C118     C        0.91530    0.56090    0.28633    1.000
    C119     C        0.94680    0.63860    0.26953    1.000
    C120     C        0.90350    0.67610    0.27663    1.000
    C121     C        0.82890    0.63600    0.30063    1.000
    C122     C        0.86200    0.73860    0.55293    1.000
    C123     C        0.89770    0.80830    0.56433    1.000
    C124     C        0.91830    0.85090    0.52313    1.000
    C125     C        0.68460    0.71860    0.48533    1.000
    C126     C        0.72890    0.79970    0.48863    1.000
    C127     C        0.73330    0.83750    0.54073    1.000
    C128     C        0.69350    0.79420    0.58953    1.000
    C129     C        0.64910    0.71300    0.58613    1.000
    C130     C        0.64460    0.67520    0.53403    1.000
    C131     C        0.76650    0.90960    0.55663    1.000
    C132     C        0.56790    0.37110    0.51663    1.000
    C133     C        0.51440    0.29220    0.50813    1.000
    C134     C        0.52400    0.23560    0.53693    1.000
    C135     C        0.58700    0.25790    0.57433    1.000
    C136     C        0.64050    0.33680    0.58293    1.000
    C137     C        0.63090    0.39340    0.55413    1.000
    C138     C        0.46450    0.14510    0.52543    1.000
    S24      S        0.82400    0.60250    0.48183    1.000
    Cd13     Cd       0.86636    0.54984    0.56438    1.000
    Cd14     Cd       0.91442    0.53286    0.72855    1.000
    S25      S        0.79964    0.49970    0.66293    1.000
    S26      S        0.99724    0.67407    0.58308    1.000
    S27      S        0.89020    0.44629    0.51854    1.000
    C139     C        0.76080    0.55830    0.68247    1.000
    C140     C        0.68010    0.52070    0.68967    1.000
    C141     C        0.64560    0.56090    0.71367    1.000
    C142     C        0.69180    0.63860    0.73047    1.000
    C143     C        0.77260    0.67610    0.72337    1.000
    C144     C        0.80710    0.63600    0.69937    1.000
    C145     C        0.87660    0.73860    0.44707    1.000
    C146     C        0.91060    0.80830    0.43567    1.000
    C147     C        0.93260    0.85090    0.47687    1.000
    C148     C        0.03400    0.71860    0.51467    1.000
    C149     C        0.07080    0.79970    0.51137    1.000
    C150     C        0.10420    0.83750    0.45927    1.000
    C151     C        0.10070    0.79420    0.41047    1.000
    C152     C        0.06390    0.71300    0.41387    1.000
    C153     C        0.03060    0.67520    0.46597    1.000
    C154     C        0.14310    0.90960    0.44337    1.000
    C155     C        0.80320    0.37110    0.48337    1.000
    C156     C        0.77780    0.29220    0.49187    1.000
    C157     C        0.71160    0.23560    0.46307    1.000
    C158     C        0.67090    0.25790    0.42567    1.000
    C159     C        0.69630    0.33680    0.41707    1.000
    C160     C        0.76250    0.39340    0.44587    1.000
    C161     C        0.68060    0.14510    0.47457    1.000
    S28      S        0.77850    0.60250    0.51817    1.000
    Cd15     Cd       0.68348    0.13364    0.89771    1.000
    Cd16     Cd       0.61844    0.08558    0.06188    1.000
    S29      S        0.70006    0.20036    0.99626    1.000
    S30      S        0.67683    0.00276    0.91641    1.000
    S31      S        0.55609    0.10980    0.85187    1.000
    C162     C        0.79750    0.23920    0.01580    1.000
    C163     C        0.84060    0.31990    0.02300    1.000
    C164     C        0.91530    0.35440    0.04700    1.000
    C165     C        0.94680    0.30820    0.06380    1.000
    C166     C        0.90350    0.22740    0.05670    1.000
    C167     C        0.82890    0.19290    0.03270    1.000
    C168     C        0.86200    0.12340    0.78040    1.000
    C169     C        0.89770    0.08940    0.76900    1.000
    C170     C        0.91830    0.06740    0.81020    1.000
    C171     C        0.68460    0.96600    0.84800    1.000
    C172     C        0.72890    0.92920    0.84470    1.000
    C173     C        0.73330    0.89580    0.79260    1.000
    C174     C        0.69350    0.89930    0.74380    1.000
    C175     C        0.64910    0.93610    0.74720    1.000
    C176     C        0.64460    0.96940    0.79930    1.000
    C177     C        0.76650    0.85690    0.77670    1.000
    C178     C        0.56790    0.19680    0.81670    1.000
    C179     C        0.51440    0.22220    0.82520    1.000
    C180     C        0.52400    0.28840    0.79640    1.000
    C181     C        0.58700    0.32910    0.75900    1.000
    C182     C        0.64050    0.30370    0.75040    1.000
    C183     C        0.63090    0.23750    0.77920    1.000
    C184     C        0.46450    0.31940    0.80790    1.000
    S32      S        0.82400    0.22150    0.85150    1.000
    Cd17     Cd       0.45016    0.31652    0.23104    1.000
    Cd18     Cd       0.46714    0.38156    0.39521    1.000
    S33      S        0.50030    0.29994    0.32959    1.000
    S34      S        0.32593    0.32317    0.24974    1.000
    S35      S        0.55371    0.44391    0.18520    1.000
    C185     C        0.44170    0.20250    0.34913    1.000
    C186     C        0.47930    0.15940    0.35633    1.000
    C187     C        0.43910    0.08470    0.38033    1.000
    C188     C        0.36140    0.05320    0.39713    1.000
    C189     C        0.32390    0.09650    0.39003    1.000
    C190     C        0.36400    0.17110    0.36603    1.000
    C191     C        0.26140    0.13800    0.11373    1.000
    C192     C        0.19170    0.10230    0.10233    1.000
    C193     C        0.14910    0.08170    0.14353    1.000
    C194     C        0.28140    0.31540    0.18133    1.000
    C195     C        0.20030    0.27110    0.17803    1.000
    C196     C        0.16250    0.26670    0.12593    1.000
    C197     C        0.20580    0.30650    0.07713    1.000
    C198     C        0.28700    0.35090    0.08053    1.000
    C199     C        0.32480    0.35540    0.13263    1.000
    C200     C        0.09040    0.23350    0.11003    1.000
    C201     C        0.62890    0.43210    0.15003    1.000
    C202     C        0.70780    0.48560    0.15853    1.000
    C203     C        0.76440    0.47600    0.12973    1.000
    C204     C        0.74210    0.41300    0.09233    1.000
    C205     C        0.66320    0.35950    0.08373    1.000
    C206     C        0.60660    0.36910    0.11253    1.000
    C207     C        0.85490    0.53550    0.14123    1.000
    S36      S        0.39750    0.17600    0.18483    1.000
    Cd19     Cd       0.13364    0.45016    0.56438    1.000
    Cd20     Cd       0.08558    0.46714    0.72855    1.000
    S37      S        0.20036    0.50030    0.66293    1.000
    S38      S        0.00276    0.32593    0.58308    1.000
    S39      S        0.10980    0.55371    0.51854    1.000
    C208     C        0.23920    0.44170    0.68247    1.000
    C209     C        0.31990    0.47930    0.68967    1.000
    C210     C        0.35440    0.43910    0.71367    1.000
    C211     C        0.30820    0.36140    0.73047    1.000
    C212     C        0.22740    0.32390    0.72337    1.000
    C213     C        0.19290    0.36400    0.69937    1.000
    C214     C        0.12340    0.26140    0.44707    1.000
    C215     C        0.08940    0.19170    0.43567    1.000
    C216     C        0.06740    0.14910    0.47687    1.000
    C217     C        0.96600    0.28140    0.51467    1.000
    C218     C        0.92920    0.20030    0.51137    1.000
    C219     C        0.89580    0.16250    0.45927    1.000
    C220     C        0.89930    0.20580    0.41047    1.000
    C221     C        0.93610    0.28700    0.41387    1.000
    C222     C        0.96940    0.32480    0.46597    1.000
    C223     C        0.85690    0.09040    0.44337    1.000
    C224     C        0.19680    0.62890    0.48337    1.000
    C225     C        0.22220    0.70780    0.49187    1.000
    C226     C        0.28840    0.76440    0.46307    1.000
    C227     C        0.32910    0.74210    0.42567    1.000
    C228     C        0.30370    0.66320    0.41707    1.000
    C229     C        0.23750    0.60660    0.44587    1.000
    C230     C        0.31940    0.85490    0.47457    1.000
    S40      S        0.22150    0.39750    0.51817    1.000
    Cd21     Cd       0.31652    0.86636    0.89771    1.000
    Cd22     Cd       0.38156    0.91442    0.06188    1.000
    S41      S        0.29994    0.79964    0.99626    1.000
    S42      S        0.32317    0.99724    0.91641    1.000
    S43      S        0.44391    0.89020    0.85187    1.000
    C231     C        0.20250    0.76080    0.01580    1.000
    C232     C        0.15940    0.68010    0.02300    1.000
    C233     C        0.08470    0.64560    0.04700    1.000
    C234     C        0.05320    0.69180    0.06380    1.000
    C235     C        0.09650    0.77260    0.05670    1.000
    C236     C        0.17110    0.80710    0.03270    1.000
    C237     C        0.13800    0.87660    0.78040    1.000
    C238     C        0.10230    0.91060    0.76900    1.000
    C239     C        0.08170    0.93260    0.81020    1.000
    C240     C        0.31540    0.03400    0.84800    1.000
    C241     C        0.27110    0.07080    0.84470    1.000
    C242     C        0.26670    0.10420    0.79260    1.000
    C243     C        0.30650    0.10070    0.74380    1.000
    C244     C        0.35090    0.06390    0.74720    1.000
    C245     C        0.35540    0.03060    0.79930    1.000
    C246     C        0.23350    0.14310    0.77670    1.000
    C247     C        0.43210    0.80320    0.81670    1.000
    C248     C        0.48560    0.77780    0.82520    1.000
    C249     C        0.47600    0.71160    0.79640    1.000
    C250     C        0.41300    0.67090    0.75900    1.000
    C251     C        0.35950    0.69630    0.75040    1.000
    C252     C        0.36910    0.76250    0.77920    1.000
    C253     C        0.53550    0.68060    0.80790    1.000
    S44      S        0.17600    0.77850    0.85150    1.000
    Cd23     Cd       0.54984    0.68348    0.23104    1.000
    Cd24     Cd       0.53286    0.61844    0.39521    1.000
    S45      S        0.49970    0.70006    0.32959    1.000
    S46      S        0.67407    0.67683    0.24974    1.000
    S47      S        0.44629    0.55609    0.18520    1.000
    C254     C        0.55830    0.79750    0.34913    1.000
    C255     C        0.52070    0.84060    0.35633    1.000
    C256     C        0.56090    0.91530    0.38033    1.000
    C257     C        0.63860    0.94680    0.39713    1.000
    C258     C        0.67610    0.90350    0.39003    1.000
    C259     C        0.63600    0.82890    0.36603    1.000
    C260     C        0.73860    0.86200    0.11373    1.000
    C261     C        0.80830    0.89770    0.10233    1.000
    C262     C        0.85090    0.91830    0.14353    1.000
    C263     C        0.71860    0.68460    0.18133    1.000
    C264     C        0.79970    0.72890    0.17803    1.000
    C265     C        0.83750    0.73330    0.12593    1.000
    C266     C        0.79420    0.69350    0.07713    1.000
    C267     C        0.71300    0.64910    0.08053    1.000
    C268     C        0.67520    0.64460    0.13263    1.000
    C269     C        0.90960    0.76650    0.11003    1.000
    C270     C        0.37110    0.56790    0.15003    1.000
    C271     C        0.29220    0.51440    0.15853    1.000
    C272     C        0.23560    0.52400    0.12973    1.000
    C273     C        0.25790    0.58700    0.09233    1.000
    C274     C        0.33680    0.64050    0.08373    1.000
    C275     C        0.39340    0.63090    0.11253    1.000
    C276     C        0.14510    0.46450    0.14123    1.000
    S48      S        0.60250    0.82400    0.18483    1.000
    S49      S        0.50000    0.00000    0.00000    1.000
    S50      S        0.00000    0.50000    0.66667    1.000
    S51      S        0.50000    0.50000    0.33333    1.000
    C277     C        0.70130    0.85065    0.16667    1.000
    C278     C        0.14935    0.85065    0.83333    1.000
    C279     C        0.14935    0.29870    0.50000    1.000
    C280     C        0.29870    0.14935    0.16667    1.000
    C281     C        0.85065    0.14935    0.83333    1.000
    C282     C        0.85065    0.70130    0.50000    1.000
