# CIF file generated by openbabel 3.1.0, see https://openbabel.org
data_I
_chemical_name_common 'image0'
_cell_length_a 25.6433
_cell_length_b 13.3904
_cell_length_c 15.1209
_cell_angle_alpha 90
_cell_angle_beta 92.753
_cell_angle_gamma 90
_space_group_name_H-M_alt 'P 1'
_space_group_name_Hall 'P 1'
loop_
    _symmetry_equiv_pos_as_xyz
    x,y,z
loop_
    _atom_site_label
    _atom_site_type_symbol
    _atom_site_fract_x
    _atom_site_fract_y
    _atom_site_fract_z
    _atom_site_occupancy
    Cd1      Cd       0.76136    0.04973    0.99770    1.000
    O1       O        0.68630    0.00100    0.11570    1.000
    O2       O        0.81730    0.01870    0.11310    1.000
    O3       O        0.59550    0.41040    0.09300    1.000
    O4       O        0.56190    0.98640    0.37030    1.000
    C1       C        0.68390    0.09310    0.12210    1.000
    C2       C        0.56520    0.07720    0.37640    1.000
    C3       C        0.82690    0.00430    0.19390    1.000
    C4       C        0.59830    0.23910    0.31780    1.000
    H1       H        0.58000    0.27180    0.36100    1.000
    C5       C        0.62460    0.08740    0.24980    1.000
    H2       H        0.62370    0.01810    0.24630    1.000
    O5       O        0.76910    0.38020    0.06030    1.000
    O6       O        0.70760    0.14870    0.06930    1.000
    C6       C        0.63560    0.45540    0.11720    1.000
    C7       C        0.79190    0.42890    0.12240    1.000
    O7       O        0.95150    0.37690    0.42860    1.000
    O8       O        0.92900    0.52030    0.37120    1.000
    C8       C        0.65460    0.24600    0.19560    1.000
    H3       H        0.67450    0.28240    0.15710    1.000
    C9       C        0.65300    0.14140    0.19090    1.000
    C10      C        0.83610    0.22360    0.28070    1.000
    C11      C        0.82120    0.37470    0.19560    1.000
    C12      C        0.62580    0.29460    0.25880    1.000
    O9       O        0.62330    0.39650    0.26950    1.000
    O10      O        0.82740    0.12840    0.30960    1.000
    C13      C        0.65330    0.45890    0.21390    1.000
    H4       H        0.69000    0.43900    0.22010    1.000
    C14      C        0.88440    0.37360    0.31780    1.000
    C15      C        0.81030    0.27340    0.20980    1.000
    H5       H        0.78630    0.23970    0.17260    1.000
    O11      O        0.54170    0.12700    0.43430    1.000
    C16      C        0.87460    0.27640    0.33450    1.000
    H6       H        0.89270    0.24390    0.38070    1.000
    C17      C        0.92420    0.42710    0.37670    1.000
    C18      C        0.85620    0.42520    0.24880    1.000
    H7       H        0.86170    0.49310    0.24010    1.000
    O12      O        0.86200    0.94790    0.22090    1.000
    C19      C        0.76990    0.99130    0.32080    1.000
    H8       H        0.74750    0.94650    0.28700    1.000
    H9       H        0.79660    0.95380    0.35270    1.000
    H10      H        0.74970    0.02770    0.36180    1.000
    C20      C        0.59720    0.13600    0.31420    1.000
    O13      O        0.79020    0.52350    0.12600    1.000
    C21      C        0.79460    0.06260    0.25980    1.000
    H11      H        0.76730    0.10100    0.22730    1.000
    C22      C        0.64760    0.56490    0.24980    1.000
    H12      H        0.66700    0.61040    0.21500    1.000
    H13      H        0.61140    0.58350    0.24670    1.000
    H14      H        0.66080    0.56730    0.31030    1.000
    O14      O        0.66380    0.49910    0.06430    1.000
    Cd2      Cd       0.26136    0.54973    0.99770    1.000
    O15      O        0.18630    0.50100    0.11570    1.000
    O16      O        0.31730    0.51870    0.11310    1.000
    O17      O        0.09550    0.91040    0.09300    1.000
    O18      O        0.06190    0.48640    0.37030    1.000
    C23      C        0.18390    0.59310    0.12210    1.000
    C24      C        0.06520    0.57720    0.37640    1.000
    C25      C        0.32690    0.50430    0.19390    1.000
    C26      C        0.09830    0.73910    0.31780    1.000
    H15      H        0.08000    0.77180    0.36100    1.000
    C27      C        0.12460    0.58740    0.24980    1.000
    H16      H        0.12370    0.51810    0.24630    1.000
    O19      O        0.26910    0.88020    0.06030    1.000
    O20      O        0.20760    0.64870    0.06930    1.000
    C28      C        0.13560    0.95540    0.11720    1.000
    C29      C        0.29190    0.92890    0.12240    1.000
    O21      O        0.45150    0.87690    0.42860    1.000
    O22      O        0.42900    0.02030    0.37120    1.000
    C30      C        0.15460    0.74600    0.19560    1.000
    H17      H        0.17450    0.78240    0.15710    1.000
    C31      C        0.15300    0.64140    0.19090    1.000
    C32      C        0.33610    0.72360    0.28070    1.000
    C33      C        0.32120    0.87470    0.19560    1.000
    C34      C        0.12580    0.79460    0.25880    1.000
    O23      O        0.12330    0.89650    0.26950    1.000
    O24      O        0.32740    0.62840    0.30960    1.000
    C35      C        0.15330    0.95890    0.21390    1.000
    H18      H        0.19000    0.93900    0.22010    1.000
    C36      C        0.38440    0.87360    0.31780    1.000
    C37      C        0.31030    0.77340    0.20980    1.000
    H19      H        0.28630    0.73970    0.17260    1.000
    O25      O        0.04170    0.62700    0.43430    1.000
    C38      C        0.37460    0.77640    0.33450    1.000
    H20      H        0.39270    0.74390    0.38070    1.000
    C39      C        0.42420    0.92710    0.37670    1.000
    C40      C        0.35620    0.92520    0.24880    1.000
    H21      H        0.36170    0.99310    0.24010    1.000
    O26      O        0.36200    0.44790    0.22090    1.000
    C41      C        0.26990    0.49130    0.32080    1.000
    H22      H        0.24750    0.44650    0.28700    1.000
    H23      H        0.29660    0.45380    0.35270    1.000
    H24      H        0.24970    0.52770    0.36180    1.000
    C42      C        0.09720    0.63600    0.31420    1.000
    O27      O        0.29020    0.02350    0.12600    1.000
    C43      C        0.29460    0.56260    0.25980    1.000
    H25      H        0.26730    0.60100    0.22730    1.000
    C44      C        0.14760    0.06490    0.24980    1.000
    H26      H        0.16700    0.11040    0.21500    1.000
    H27      H        0.11140    0.08350    0.24670    1.000
    H28      H        0.16080    0.06730    0.31030    1.000
    O28      O        0.16380    0.99910    0.06430    1.000
    Cd3      Cd       0.23864    0.04973    0.00230    1.000
    O29      O        0.31370    0.00100    0.88430    1.000
    O30      O        0.18270    0.01870    0.88690    1.000
    O31      O        0.40450    0.41040    0.90700    1.000
    O32      O        0.43810    0.98640    0.62970    1.000
    C45      C        0.31610    0.09310    0.87790    1.000
    C46      C        0.43480    0.07720    0.62360    1.000
    C47      C        0.17310    0.00430    0.80610    1.000
    C48      C        0.40170    0.23910    0.68220    1.000
    H29      H        0.42000    0.27180    0.63900    1.000
    C49      C        0.37540    0.08740    0.75020    1.000
    H30      H        0.37630    0.01810    0.75370    1.000
    O33      O        0.23090    0.38020    0.93970    1.000
    O34      O        0.29240    0.14870    0.93070    1.000
    C50      C        0.36440    0.45540    0.88280    1.000
    C51      C        0.20810    0.42890    0.87760    1.000
    O35      O        0.04850    0.37690    0.57140    1.000
    O36      O        0.07100    0.52030    0.62880    1.000
    C52      C        0.34540    0.24600    0.80440    1.000
    H31      H        0.32550    0.28240    0.84290    1.000
    C53      C        0.34700    0.14140    0.80910    1.000
    C54      C        0.16390    0.22360    0.71930    1.000
    C55      C        0.17880    0.37470    0.80440    1.000
    C56      C        0.37420    0.29460    0.74120    1.000
    O37      O        0.37670    0.39650    0.73050    1.000
    O38      O        0.17260    0.12840    0.69040    1.000
    C57      C        0.34670    0.45890    0.78610    1.000
    H32      H        0.31000    0.43900    0.77990    1.000
    C58      C        0.11560    0.37360    0.68220    1.000
    C59      C        0.18970    0.27340    0.79020    1.000
    H33      H        0.21370    0.23970    0.82740    1.000
    O39      O        0.45830    0.12700    0.56570    1.000
    C60      C        0.12540    0.27640    0.66550    1.000
    H34      H        0.10730    0.24390    0.61930    1.000
    C61      C        0.07580    0.42710    0.62330    1.000
    C62      C        0.14380    0.42520    0.75120    1.000
    H35      H        0.13830    0.49310    0.75990    1.000
    O40      O        0.13800    0.94790    0.77910    1.000
    C63      C        0.23010    0.99130    0.67920    1.000
    H36      H        0.25250    0.94650    0.71300    1.000
    H37      H        0.20340    0.95380    0.64730    1.000
    H38      H        0.25030    0.02770    0.63820    1.000
    C64      C        0.40280    0.13600    0.68580    1.000
    O41      O        0.20980    0.52350    0.87400    1.000
    C65      C        0.20540    0.06260    0.74020    1.000
    H39      H        0.23270    0.10100    0.77270    1.000
    C66      C        0.35240    0.56490    0.75020    1.000
    H40      H        0.33300    0.61040    0.78500    1.000
    H41      H        0.38860    0.58350    0.75330    1.000
    H42      H        0.33920    0.56730    0.68970    1.000
    O42      O        0.33620    0.49910    0.93570    1.000
    Cd4      Cd       0.73864    0.54973    0.00230    1.000
    O43      O        0.81370    0.50100    0.88430    1.000
    O44      O        0.68270    0.51870    0.88690    1.000
    O45      O        0.90450    0.91040    0.90700    1.000
    O46      O        0.93810    0.48640    0.62970    1.000
    C67      C        0.81610    0.59310    0.87790    1.000
    C68      C        0.93480    0.57720    0.62360    1.000
    C69      C        0.67310    0.50430    0.80610    1.000
    C70      C        0.90170    0.73910    0.68220    1.000
    H43      H        0.92000    0.77180    0.63900    1.000
    C71      C        0.87540    0.58740    0.75020    1.000
    H44      H        0.87630    0.51810    0.75370    1.000
    O47      O        0.73090    0.88020    0.93970    1.000
    O48      O        0.79240    0.64870    0.93070    1.000
    C72      C        0.86440    0.95540    0.88280    1.000
    C73      C        0.70810    0.92890    0.87760    1.000
    O49      O        0.54850    0.87690    0.57140    1.000
    O50      O        0.57100    0.02030    0.62880    1.000
    C74      C        0.84540    0.74600    0.80440    1.000
    H45      H        0.82550    0.78240    0.84290    1.000
    C75      C        0.84700    0.64140    0.80910    1.000
    C76      C        0.66390    0.72360    0.71930    1.000
    C77      C        0.67880    0.87470    0.80440    1.000
    C78      C        0.87420    0.79460    0.74120    1.000
    O51      O        0.87670    0.89650    0.73050    1.000
    O52      O        0.67260    0.62840    0.69040    1.000
    C79      C        0.84670    0.95890    0.78610    1.000
    H46      H        0.81000    0.93900    0.77990    1.000
    C80      C        0.61560    0.87360    0.68220    1.000
    C81      C        0.68970    0.77340    0.79020    1.000
    H47      H        0.71370    0.73970    0.82740    1.000
    O53      O        0.95830    0.62700    0.56570    1.000
    C82      C        0.62540    0.77640    0.66550    1.000
    H48      H        0.60730    0.74390    0.61930    1.000
    C83      C        0.57580    0.92710    0.62330    1.000
    C84      C        0.64380    0.92520    0.75120    1.000
    H49      H        0.63830    0.99310    0.75990    1.000
    O54      O        0.63800    0.44790    0.77910    1.000
    C85      C        0.73010    0.49130    0.67920    1.000
    H50      H        0.75250    0.44650    0.71300    1.000
    H51      H        0.70340    0.45380    0.64730    1.000
    H52      H        0.75030    0.52770    0.63820    1.000
    C86      C        0.90280    0.63600    0.68580    1.000
    O55      O        0.70980    0.02350    0.87400    1.000
    C87      C        0.70540    0.56260    0.74020    1.000
    H53      H        0.73270    0.60100    0.77270    1.000
    C88      C        0.85240    0.06490    0.75020    1.000
    H54      H        0.83300    0.11040    0.78500    1.000
    H55      H        0.88860    0.08350    0.75330    1.000
    H56      H        0.83920    0.06730    0.68970    1.000
    O56      O        0.83620    0.99910    0.93570    1.000
    Cd5      Cd       0.50000    0.99342    0.50000    1.000
    Cd6      Cd       0.00000    0.49342    0.50000    1.000
