# CIF file generated by openbabel 3.1.0, see https://openbabel.org
data_I
_chemical_name_common 'image0'
_cell_length_a 21.9524
_cell_length_b 21.9524
_cell_length_c 21.9524
_cell_angle_alpha 90
_cell_angle_beta 90
_cell_angle_gamma 90
_space_group_name_H-M_alt 'P 1'
_space_group_name_Hall 'P 1'
loop_
    _symmetry_equiv_pos_as_xyz
    x,y,z
loop_
    _atom_site_label
    _atom_site_type_symbol
    _atom_site_fract_x
    _atom_site_fract_y
    _atom_site_fract_z
    _atom_site_occupancy
    Fe1      Fe       0.76066    0.30344    0.17957    1.000
    O1       O        0.74559    0.24928    0.10690    1.000
    O2       O        0.70377    0.16589    0.14920    1.000
    O3       O        0.72652    0.26260    0.87422    1.000
    O4       O        0.68617    0.18110    0.82914    1.000
    C1       C        0.72181    0.19730    0.10426    1.000
    C2       C        0.70610    0.20900    0.87463    1.000
    C3       C        0.71590    0.20280    0.98946    1.000
    H1       H        0.72390    0.24440    0.99130    1.000
    C4       C        0.71350    0.16890    0.04274    1.000
    C5       C        0.70620    0.17500    0.93328    1.000
    C6       C        0.69710    0.11280    0.93005    1.000
    H2       H        0.69150    0.09380    0.89260    1.000
    C7       C        0.69640    0.07940    0.98370    1.000
    C8       C        0.70360    0.10720    0.04000    1.000
    H3       H        0.70180    0.08420    0.07550    1.000
    N1       N        0.69260    0.01372    0.97621    1.000
    Fe2      Fe       0.23934    0.69656    0.17957    1.000
    O5       O        0.25441    0.75072    0.10690    1.000
    O6       O        0.29623    0.83411    0.14920    1.000
    O7       O        0.27348    0.73740    0.87422    1.000
    O8       O        0.31383    0.81890    0.82914    1.000
    C9       C        0.27819    0.80270    0.10426    1.000
    C10      C        0.29390    0.79100    0.87463    1.000
    C11      C        0.28410    0.79720    0.98946    1.000
    H4       H        0.27610    0.75560    0.99130    1.000
    C12      C        0.28650    0.83110    0.04274    1.000
    C13      C        0.29380    0.82500    0.93328    1.000
    C14      C        0.30290    0.88720    0.93005    1.000
    H5       H        0.30850    0.90620    0.89260    1.000
    C15      C        0.30360    0.92060    0.98370    1.000
    C16      C        0.29640    0.89280    0.04000    1.000
    H6       H        0.29820    0.91580    0.07550    1.000
    N2       N        0.30740    0.98628    0.97621    1.000
    Fe3      Fe       0.23934    0.30344    0.82043    1.000
    O9       O        0.25441    0.24928    0.89310    1.000
    O10      O        0.29623    0.16589    0.85080    1.000
    O11      O        0.27348    0.26260    0.12578    1.000
    O12      O        0.31383    0.18110    0.17086    1.000
    C17      C        0.27819    0.19730    0.89574    1.000
    C18      C        0.29390    0.20900    0.12537    1.000
    C19      C        0.28410    0.20280    0.01054    1.000
    H7       H        0.27610    0.24440    0.00870    1.000
    C20      C        0.28650    0.16890    0.95726    1.000
    C21      C        0.29380    0.17500    0.06672    1.000
    C22      C        0.30290    0.11280    0.06995    1.000
    H8       H        0.30850    0.09380    0.10740    1.000
    C23      C        0.30360    0.07940    0.01630    1.000
    C24      C        0.29640    0.10720    0.96000    1.000
    H9       H        0.29820    0.08420    0.92450    1.000
    N3       N        0.30740    0.01372    0.02379    1.000
    Fe4      Fe       0.76066    0.69656    0.82043    1.000
    O13      O        0.74559    0.75072    0.89310    1.000
    O14      O        0.70377    0.83411    0.85080    1.000
    O15      O        0.72652    0.73740    0.12578    1.000
    O16      O        0.68617    0.81890    0.17086    1.000
    C25      C        0.72181    0.80270    0.89574    1.000
    C26      C        0.70610    0.79100    0.12537    1.000
    C27      C        0.71590    0.79720    0.01054    1.000
    H10      H        0.72390    0.75560    0.00870    1.000
    C28      C        0.71350    0.83110    0.95726    1.000
    C29      C        0.70620    0.82500    0.06672    1.000
    C30      C        0.69710    0.88720    0.06995    1.000
    H11      H        0.69150    0.90620    0.10740    1.000
    C31      C        0.69640    0.92060    0.01630    1.000
    C32      C        0.70360    0.89280    0.96000    1.000
    H12      H        0.70180    0.91580    0.92450    1.000
    N4       N        0.69260    0.98628    0.02379    1.000
    Fe5      Fe       0.17957    0.76066    0.30344    1.000
    O17      O        0.10690    0.74559    0.24928    1.000
    O18      O        0.14920    0.70377    0.16589    1.000
    O19      O        0.87422    0.72652    0.26260    1.000
    O20      O        0.82914    0.68617    0.18110    1.000
    C33      C        0.10426    0.72181    0.19730    1.000
    C34      C        0.87463    0.70610    0.20900    1.000
    C35      C        0.98946    0.71590    0.20280    1.000
    H13      H        0.99130    0.72390    0.24440    1.000
    C36      C        0.04274    0.71350    0.16890    1.000
    C37      C        0.93328    0.70620    0.17500    1.000
    C38      C        0.93005    0.69710    0.11280    1.000
    H14      H        0.89260    0.69150    0.09380    1.000
    C39      C        0.98370    0.69640    0.07940    1.000
    C40      C        0.04000    0.70360    0.10720    1.000
    H15      H        0.07550    0.70180    0.08420    1.000
    N5       N        0.97621    0.69260    0.01372    1.000
    Fe6      Fe       0.17957    0.23934    0.69656    1.000
    O21      O        0.10690    0.25441    0.75072    1.000
    O22      O        0.14920    0.29623    0.83411    1.000
    O23      O        0.87422    0.27348    0.73740    1.000
    O24      O        0.82914    0.31383    0.81890    1.000
    C41      C        0.10426    0.27819    0.80270    1.000
    C42      C        0.87463    0.29390    0.79100    1.000
    C43      C        0.98946    0.28410    0.79720    1.000
    H16      H        0.99130    0.27610    0.75560    1.000
    C44      C        0.04274    0.28650    0.83110    1.000
    C45      C        0.93328    0.29380    0.82500    1.000
    C46      C        0.93005    0.30290    0.88720    1.000
    H17      H        0.89260    0.30850    0.90620    1.000
    C47      C        0.98370    0.30360    0.92060    1.000
    C48      C        0.04000    0.29640    0.89280    1.000
    H18      H        0.07550    0.29820    0.91580    1.000
    N6       N        0.97621    0.30740    0.98628    1.000
    Fe7      Fe       0.82043    0.23934    0.30344    1.000
    O25      O        0.89310    0.25441    0.24928    1.000
    O26      O        0.85080    0.29623    0.16589    1.000
    O27      O        0.12578    0.27348    0.26260    1.000
    O28      O        0.17086    0.31383    0.18110    1.000
    C49      C        0.89574    0.27819    0.19730    1.000
    C50      C        0.12537    0.29390    0.20900    1.000
    C51      C        0.01054    0.28410    0.20280    1.000
    H19      H        0.00870    0.27610    0.24440    1.000
    C52      C        0.95726    0.28650    0.16890    1.000
    C53      C        0.06672    0.29380    0.17500    1.000
    C54      C        0.06995    0.30290    0.11280    1.000
    H20      H        0.10740    0.30850    0.09380    1.000
    C55      C        0.01630    0.30360    0.07940    1.000
    C56      C        0.96000    0.29640    0.10720    1.000
    H21      H        0.92450    0.29820    0.08420    1.000
    N7       N        0.02379    0.30740    0.01372    1.000
    Fe8      Fe       0.82043    0.76066    0.69656    1.000
    O29      O        0.89310    0.74559    0.75072    1.000
    O30      O        0.85080    0.70377    0.83411    1.000
    O31      O        0.12578    0.72652    0.73740    1.000
    O32      O        0.17086    0.68617    0.81890    1.000
    C57      C        0.89574    0.72181    0.80270    1.000
    C58      C        0.12537    0.70610    0.79100    1.000
    C59      C        0.01054    0.71590    0.79720    1.000
    H22      H        0.00870    0.72390    0.75560    1.000
    C60      C        0.95726    0.71350    0.83110    1.000
    C61      C        0.06672    0.70620    0.82500    1.000
    C62      C        0.06995    0.69710    0.88720    1.000
    H23      H        0.10740    0.69150    0.90620    1.000
    C63      C        0.01630    0.69640    0.92060    1.000
    C64      C        0.96000    0.70360    0.89280    1.000
    H24      H        0.92450    0.70180    0.91580    1.000
    N8       N        0.02379    0.69260    0.98628    1.000
    Fe9      Fe       0.30344    0.17957    0.76066    1.000
    O33      O        0.24928    0.10690    0.74559    1.000
    O34      O        0.16589    0.14920    0.70377    1.000
    O35      O        0.26260    0.87422    0.72652    1.000
    O36      O        0.18110    0.82914    0.68617    1.000
    C65      C        0.19730    0.10426    0.72181    1.000
    C66      C        0.20900    0.87463    0.70610    1.000
    C67      C        0.20280    0.98946    0.71590    1.000
    H25      H        0.24440    0.99130    0.72390    1.000
    C68      C        0.16890    0.04274    0.71350    1.000
    C69      C        0.17500    0.93328    0.70620    1.000
    C70      C        0.11280    0.93005    0.69710    1.000
    H26      H        0.09380    0.89260    0.69150    1.000
    C71      C        0.07940    0.98370    0.69640    1.000
    C72      C        0.10720    0.04000    0.70360    1.000
    H27      H        0.08420    0.07550    0.70180    1.000
    N9       N        0.01372    0.97621    0.69260    1.000
    Fe10     Fe       0.69656    0.17957    0.23934    1.000
    O37      O        0.75072    0.10690    0.25441    1.000
    O38      O        0.83411    0.14920    0.29623    1.000
    O39      O        0.73740    0.87422    0.27348    1.000
    O40      O        0.81890    0.82914    0.31383    1.000
    C73      C        0.80270    0.10426    0.27819    1.000
    C74      C        0.79100    0.87463    0.29390    1.000
    C75      C        0.79720    0.98946    0.28410    1.000
    H28      H        0.75560    0.99130    0.27610    1.000
    C76      C        0.83110    0.04274    0.28650    1.000
    C77      C        0.82500    0.93328    0.29380    1.000
    C78      C        0.88720    0.93005    0.30290    1.000
    H29      H        0.90620    0.89260    0.30850    1.000
    C79      C        0.92060    0.98370    0.30360    1.000
    C80      C        0.89280    0.04000    0.29640    1.000
    H30      H        0.91580    0.07550    0.29820    1.000
    N10      N        0.98628    0.97621    0.30740    1.000
    Fe11     Fe       0.30344    0.82043    0.23934    1.000
    O41      O        0.24928    0.89310    0.25441    1.000
    O42      O        0.16589    0.85080    0.29623    1.000
    O43      O        0.26260    0.12578    0.27348    1.000
    O44      O        0.18110    0.17086    0.31383    1.000
    C81      C        0.19730    0.89574    0.27819    1.000
    C82      C        0.20900    0.12537    0.29390    1.000
    C83      C        0.20280    0.01054    0.28410    1.000
    H31      H        0.24440    0.00870    0.27610    1.000
    C84      C        0.16890    0.95726    0.28650    1.000
    C85      C        0.17500    0.06672    0.29380    1.000
    C86      C        0.11280    0.06995    0.30290    1.000
    H32      H        0.09380    0.10740    0.30850    1.000
    C87      C        0.07940    0.01630    0.30360    1.000
    C88      C        0.10720    0.96000    0.29640    1.000
    H33      H        0.08420    0.92450    0.29820    1.000
    N11      N        0.01372    0.02379    0.30740    1.000
    Fe12     Fe       0.69656    0.82043    0.76066    1.000
    O45      O        0.75072    0.89310    0.74559    1.000
    O46      O        0.83411    0.85080    0.70377    1.000
    O47      O        0.73740    0.12578    0.72652    1.000
    O48      O        0.81890    0.17086    0.68617    1.000
    C89      C        0.80270    0.89574    0.72181    1.000
    C90      C        0.79100    0.12537    0.70610    1.000
    C91      C        0.79720    0.01054    0.71590    1.000
    H34      H        0.75560    0.00870    0.72390    1.000
    C92      C        0.83110    0.95726    0.71350    1.000
    C93      C        0.82500    0.06672    0.70620    1.000
    C94      C        0.88720    0.06995    0.69710    1.000
    H35      H        0.90620    0.10740    0.69150    1.000
    C95      C        0.92060    0.01630    0.69640    1.000
    C96      C        0.89280    0.96000    0.70360    1.000
    H36      H        0.91580    0.92450    0.70180    1.000
    N12      N        0.98628    0.02379    0.69260    1.000
    Fe13     Fe       0.80344    0.26066    0.67957    1.000
    O49      O        0.74928    0.24559    0.60690    1.000
    O50      O        0.66589    0.20377    0.64920    1.000
    O51      O        0.76260    0.22652    0.37422    1.000
    O52      O        0.68110    0.18617    0.32914    1.000
    C97      C        0.69730    0.22181    0.60426    1.000
    C98      C        0.70900    0.20610    0.37463    1.000
    C99      C        0.70280    0.21590    0.48946    1.000
    H37      H        0.74440    0.22390    0.49130    1.000
    C100     C        0.66890    0.21350    0.54274    1.000
    C101     C        0.67500    0.20620    0.43328    1.000
    C102     C        0.61280    0.19710    0.43005    1.000
    H38      H        0.59380    0.19150    0.39260    1.000
    C103     C        0.57940    0.19640    0.48370    1.000
    C104     C        0.60720    0.20360    0.54000    1.000
    H39      H        0.58420    0.20180    0.57550    1.000
    N13      N        0.51372    0.19260    0.47621    1.000
    Fe14     Fe       0.19656    0.73934    0.67957    1.000
    O53      O        0.25072    0.75441    0.60690    1.000
    O54      O        0.33411    0.79623    0.64920    1.000
    O55      O        0.23740    0.77348    0.37422    1.000
    O56      O        0.31890    0.81383    0.32914    1.000
    C105     C        0.30270    0.77819    0.60426    1.000
    C106     C        0.29100    0.79390    0.37463    1.000
    C107     C        0.29720    0.78410    0.48946    1.000
    H40      H        0.25560    0.77610    0.49130    1.000
    C108     C        0.33110    0.78650    0.54274    1.000
    C109     C        0.32500    0.79380    0.43328    1.000
    C110     C        0.38720    0.80290    0.43005    1.000
    H41      H        0.40620    0.80850    0.39260    1.000
    C111     C        0.42060    0.80360    0.48370    1.000
    C112     C        0.39280    0.79640    0.54000    1.000
    H42      H        0.41580    0.79820    0.57550    1.000
    N14      N        0.48628    0.80740    0.47621    1.000
    Fe15     Fe       0.80344    0.73934    0.32043    1.000
    O57      O        0.74928    0.75441    0.39310    1.000
    O58      O        0.66589    0.79623    0.35080    1.000
    O59      O        0.76260    0.77348    0.62578    1.000
    O60      O        0.68110    0.81383    0.67086    1.000
    C113     C        0.69730    0.77819    0.39574    1.000
    C114     C        0.70900    0.79390    0.62537    1.000
    C115     C        0.70280    0.78410    0.51054    1.000
    H43      H        0.74440    0.77610    0.50870    1.000
    C116     C        0.66890    0.78650    0.45726    1.000
    C117     C        0.67500    0.79380    0.56672    1.000
    C118     C        0.61280    0.80290    0.56995    1.000
    H44      H        0.59380    0.80850    0.60740    1.000
    C119     C        0.57940    0.80360    0.51630    1.000
    C120     C        0.60720    0.79640    0.46000    1.000
    H45      H        0.58420    0.79820    0.42450    1.000
    N15      N        0.51372    0.80740    0.52379    1.000
    Fe16     Fe       0.19656    0.26066    0.32043    1.000
    O61      O        0.25072    0.24559    0.39310    1.000
    O62      O        0.33411    0.20377    0.35080    1.000
    O63      O        0.23740    0.22652    0.62578    1.000
    O64      O        0.31890    0.18617    0.67086    1.000
    C121     C        0.30270    0.22181    0.39574    1.000
    C122     C        0.29100    0.20610    0.62537    1.000
    C123     C        0.29720    0.21590    0.51054    1.000
    H46      H        0.25560    0.22390    0.50870    1.000
    C124     C        0.33110    0.21350    0.45726    1.000
    C125     C        0.32500    0.20620    0.56672    1.000
    C126     C        0.38720    0.19710    0.56995    1.000
    H47      H        0.40620    0.19150    0.60740    1.000
    C127     C        0.42060    0.19640    0.51630    1.000
    C128     C        0.39280    0.20360    0.46000    1.000
    H48      H        0.41580    0.20180    0.42450    1.000
    N16      N        0.48628    0.19260    0.52379    1.000
    Fe17     Fe       0.26066    0.67957    0.80344    1.000
    O65      O        0.24559    0.60690    0.74928    1.000
    O66      O        0.20377    0.64920    0.66589    1.000
    O67      O        0.22652    0.37422    0.76260    1.000
    O68      O        0.18617    0.32914    0.68110    1.000
    C129     C        0.22181    0.60426    0.69730    1.000
    C130     C        0.20610    0.37463    0.70900    1.000
    C131     C        0.21590    0.48946    0.70280    1.000
    H49      H        0.22390    0.49130    0.74440    1.000
    C132     C        0.21350    0.54274    0.66890    1.000
    C133     C        0.20620    0.43328    0.67500    1.000
    C134     C        0.19710    0.43005    0.61280    1.000
    H50      H        0.19150    0.39260    0.59380    1.000
    C135     C        0.19640    0.48370    0.57940    1.000
    C136     C        0.20360    0.54000    0.60720    1.000
    H51      H        0.20180    0.57550    0.58420    1.000
    N17      N        0.19260    0.47621    0.51372    1.000
    Fe18     Fe       0.73934    0.67957    0.19656    1.000
    O69      O        0.75441    0.60690    0.25072    1.000
    O70      O        0.79623    0.64920    0.33411    1.000
    O71      O        0.77348    0.37422    0.23740    1.000
    O72      O        0.81383    0.32914    0.31890    1.000
    C137     C        0.77819    0.60426    0.30270    1.000
    C138     C        0.79390    0.37463    0.29100    1.000
    C139     C        0.78410    0.48946    0.29720    1.000
    H52      H        0.77610    0.49130    0.25560    1.000
    C140     C        0.78650    0.54274    0.33110    1.000
    C141     C        0.79380    0.43328    0.32500    1.000
    C142     C        0.80290    0.43005    0.38720    1.000
    H53      H        0.80850    0.39260    0.40620    1.000
    C143     C        0.80360    0.48370    0.42060    1.000
    C144     C        0.79640    0.54000    0.39280    1.000
    H54      H        0.79820    0.57550    0.41580    1.000
    N18      N        0.80740    0.47621    0.48628    1.000
    Fe19     Fe       0.73934    0.32043    0.80344    1.000
    O73      O        0.75441    0.39310    0.74928    1.000
    O74      O        0.79623    0.35080    0.66589    1.000
    O75      O        0.77348    0.62578    0.76260    1.000
    O76      O        0.81383    0.67086    0.68110    1.000
    C145     C        0.77819    0.39574    0.69730    1.000
    C146     C        0.79390    0.62537    0.70900    1.000
    C147     C        0.78410    0.51054    0.70280    1.000
    H55      H        0.77610    0.50870    0.74440    1.000
    C148     C        0.78650    0.45726    0.66890    1.000
    C149     C        0.79380    0.56672    0.67500    1.000
    C150     C        0.80290    0.56995    0.61280    1.000
    H56      H        0.80850    0.60740    0.59380    1.000
    C151     C        0.80360    0.51630    0.57940    1.000
    C152     C        0.79640    0.46000    0.60720    1.000
    H57      H        0.79820    0.42450    0.58420    1.000
    N19      N        0.80740    0.52379    0.51372    1.000
    Fe20     Fe       0.26066    0.32043    0.19656    1.000
    O77      O        0.24559    0.39310    0.25072    1.000
    O78      O        0.20377    0.35080    0.33411    1.000
    O79      O        0.22652    0.62578    0.23740    1.000
    O80      O        0.18617    0.67086    0.31890    1.000
    C153     C        0.22181    0.39574    0.30270    1.000
    C154     C        0.20610    0.62537    0.29100    1.000
    C155     C        0.21590    0.51054    0.29720    1.000
    H58      H        0.22390    0.50870    0.25560    1.000
    C156     C        0.21350    0.45726    0.33110    1.000
    C157     C        0.20620    0.56672    0.32500    1.000
    C158     C        0.19710    0.56995    0.38720    1.000
    H59      H        0.19150    0.60740    0.40620    1.000
    C159     C        0.19640    0.51630    0.42060    1.000
    C160     C        0.20360    0.46000    0.39280    1.000
    H60      H        0.20180    0.42450    0.41580    1.000
    N20      N        0.19260    0.52379    0.48628    1.000
    Fe21     Fe       0.67957    0.80344    0.26066    1.000
    O81      O        0.60690    0.74928    0.24559    1.000
    O82      O        0.64920    0.66589    0.20377    1.000
    O83      O        0.37422    0.76260    0.22652    1.000
    O84      O        0.32914    0.68110    0.18617    1.000
    C161     C        0.60426    0.69730    0.22181    1.000
    C162     C        0.37463    0.70900    0.20610    1.000
    C163     C        0.48946    0.70280    0.21590    1.000
    H61      H        0.49130    0.74440    0.22390    1.000
    C164     C        0.54274    0.66890    0.21350    1.000
    C165     C        0.43328    0.67500    0.20620    1.000
    C166     C        0.43005    0.61280    0.19710    1.000
    H62      H        0.39260    0.59380    0.19150    1.000
    C167     C        0.48370    0.57940    0.19640    1.000
    C168     C        0.54000    0.60720    0.20360    1.000
    H63      H        0.57550    0.58420    0.20180    1.000
    N21      N        0.47621    0.51372    0.19260    1.000
    Fe22     Fe       0.67957    0.19656    0.73934    1.000
    O85      O        0.60690    0.25072    0.75441    1.000
    O86      O        0.64920    0.33411    0.79623    1.000
    O87      O        0.37422    0.23740    0.77348    1.000
    O88      O        0.32914    0.31890    0.81383    1.000
    C169     C        0.60426    0.30270    0.77819    1.000
    C170     C        0.37463    0.29100    0.79390    1.000
    C171     C        0.48946    0.29720    0.78410    1.000
    H64      H        0.49130    0.25560    0.77610    1.000
    C172     C        0.54274    0.33110    0.78650    1.000
    C173     C        0.43328    0.32500    0.79380    1.000
    C174     C        0.43005    0.38720    0.80290    1.000
    H65      H        0.39260    0.40620    0.80850    1.000
    C175     C        0.48370    0.42060    0.80360    1.000
    C176     C        0.54000    0.39280    0.79640    1.000
    H66      H        0.57550    0.41580    0.79820    1.000
    N22      N        0.47621    0.48628    0.80740    1.000
    Fe23     Fe       0.32043    0.80344    0.73934    1.000
    O89      O        0.39310    0.74928    0.75441    1.000
    O90      O        0.35080    0.66589    0.79623    1.000
    O91      O        0.62578    0.76260    0.77348    1.000
    O92      O        0.67086    0.68110    0.81383    1.000
    C177     C        0.39574    0.69730    0.77819    1.000
    C178     C        0.62537    0.70900    0.79390    1.000
    C179     C        0.51054    0.70280    0.78410    1.000
    H67      H        0.50870    0.74440    0.77610    1.000
    C180     C        0.45726    0.66890    0.78650    1.000
    C181     C        0.56672    0.67500    0.79380    1.000
    C182     C        0.56995    0.61280    0.80290    1.000
    H68      H        0.60740    0.59380    0.80850    1.000
    C183     C        0.51630    0.57940    0.80360    1.000
    C184     C        0.46000    0.60720    0.79640    1.000
    H69      H        0.42450    0.58420    0.79820    1.000
    N23      N        0.52379    0.51372    0.80740    1.000
    Fe24     Fe       0.32043    0.19656    0.26066    1.000
    O93      O        0.39310    0.25072    0.24559    1.000
    O94      O        0.35080    0.33411    0.20377    1.000
    O95      O        0.62578    0.23740    0.22652    1.000
    O96      O        0.67086    0.31890    0.18617    1.000
    C185     C        0.39574    0.30270    0.22181    1.000
    C186     C        0.62537    0.29100    0.20610    1.000
    C187     C        0.51054    0.29720    0.21590    1.000
    H70      H        0.50870    0.25560    0.22390    1.000
    C188     C        0.45726    0.33110    0.21350    1.000
    C189     C        0.56672    0.32500    0.20620    1.000
    C190     C        0.56995    0.38720    0.19710    1.000
    H71      H        0.60740    0.40620    0.19150    1.000
    C191     C        0.51630    0.42060    0.19640    1.000
    C192     C        0.46000    0.39280    0.20360    1.000
    H72      H        0.42450    0.41580    0.20180    1.000
    N24      N        0.52379    0.48628    0.19260    1.000
    O97      O        0.75942    0.24058    0.24058    1.000
    O98      O        0.24058    0.75942    0.24058    1.000
    O99      O        0.24058    0.24058    0.75942    1.000
    O100     O        0.75942    0.75942    0.75942    1.000
    O101     O        0.74058    0.25942    0.74058    1.000
    O102     O        0.25942    0.74058    0.74058    1.000
    O103     O        0.74058    0.74058    0.25942    1.000
    O104     O        0.25942    0.25942    0.25942    1.000
