# CIF file generated by openbabel 3.1.0, see https://openbabel.org
data_I
_chemical_name_common 'image0'
_cell_length_a 28.764
_cell_length_b 21.682
_cell_length_c 10.933
_cell_angle_alpha 90
_cell_angle_beta 90
_cell_angle_gamma 90
_space_group_name_H-M_alt 'P 1'
_space_group_name_Hall 'P 1'
loop_
    _symmetry_equiv_pos_as_xyz
    x,y,z
loop_
    _atom_site_label
    _atom_site_type_symbol
    _atom_site_fract_x
    _atom_site_fract_y
    _atom_site_fract_z
    _atom_site_occupancy
    C1       C        0.74510    0.17130    0.39100    1.000
    H1       H        0.72300    0.20240    0.38240    1.000
    C2       C        0.79100    0.17640    0.33500    1.000
    H2       H        0.79820    0.18780    0.25530    1.000
    C3       C        0.82620    0.15800    0.44200    1.000
    H3       H        0.84970    0.18350    0.47120    1.000
    C4       C        0.85670    0.06900    0.54810    1.000
    C5       C        0.81790    0.10140    0.48360    1.000
    C6       C        0.77230    0.09280    0.51850    1.000
    H4       H        0.76610    0.06820    0.58620    1.000
    C7       C        0.73570    0.11910    0.45730    1.000
    C8       C        0.01250    0.15820    0.61300    1.000
    C9       C        0.98550    0.20650    0.68340    1.000
    C10      C        0.93690    0.20710    0.68460    1.000
    H5       H        0.92070    0.17760    0.63980    1.000
    C11      C        0.93680    0.03450    0.84580    1.000
    C12      C        0.95370    0.05830    0.97060    1.000
    C13      C        0.94320    0.02560    0.07510    1.000
    H6       H        0.92490    0.99040    0.06940    1.000
    C14      C        0.95960    0.04440    0.19000    1.000
    C15      C        0.95050    0.00580    0.30160    1.000
    C16      C        0.98580    0.09790    0.19630    1.000
    H7       H        0.99610    0.11240    0.27160    1.000
    C17      C        0.99670    0.13030    0.08860    1.000
    H8       H        0.01480    0.16580    0.09250    1.000
    C18      C        0.98080    0.10960    0.97870    1.000
    H9       H        0.98860    0.13090    0.90780    1.000
    C19      C        0.68700    0.10670    0.49340    1.000
    Co1      Co       0.95548    0.03592    0.57479    1.000
    Co2      Co       0.90923    0.91013    0.43605    1.000
    Co3      Co       0.86638    0.95605    0.71369    1.000
    O1       O        0.92330    0.94900    0.59410    1.000
    O2       O        0.68041    0.08740    0.59630    1.000
    O3       O        0.65537    0.11500    0.41620    1.000
    O4       O        0.90593    0.99350    0.84900    1.000
    O5       O        0.95546    0.05800    0.75540    1.000
    O6       O        0.99244    0.11790    0.54930    1.000
    O7       O        0.05661    0.16190    0.62170    1.000
    O8       O        0.97699    0.01477    0.39310    1.000
    O9       O        0.89706    0.07480    0.50610    1.000
    O10      O        0.84531    0.03820    0.63940    1.000
    O11      O        0.91744    0.96960    0.29910    1.000
    H10      H        0.94200    0.92300    0.62100    1.000
    C20      C        0.74480    0.14590    0.33660    1.000
    H11      H        0.72080    0.16310    0.29120    1.000
    C21      C        0.79050    0.14520    0.29000    1.000
    H12      H        0.79640    0.15290    0.20770    1.000
    C22      C        0.82690    0.13250    0.37200    1.000
    H13      H        0.85710    0.14460    0.35300    1.000
    C23      C        0.75490    0.82870    0.39100    1.000
    H14      H        0.77700    0.79760    0.38240    1.000
    C24      C        0.70900    0.82360    0.33500    1.000
    H15      H        0.70180    0.81220    0.25530    1.000
    C25      C        0.67380    0.84200    0.44200    1.000
    H16      H        0.65030    0.81650    0.47120    1.000
    C26      C        0.64330    0.93100    0.54810    1.000
    C27      C        0.68210    0.89860    0.48360    1.000
    C28      C        0.72770    0.90720    0.51850    1.000
    H17      H        0.73390    0.93180    0.58620    1.000
    C29      C        0.76430    0.88090    0.45730    1.000
    C30      C        0.48750    0.84180    0.61300    1.000
    C31      C        0.51450    0.79350    0.68340    1.000
    C32      C        0.56310    0.79290    0.68460    1.000
    H18      H        0.57930    0.82240    0.63980    1.000
    C33      C        0.56320    0.96550    0.84580    1.000
    C34      C        0.54630    0.94170    0.97060    1.000
    C35      C        0.55680    0.97440    0.07510    1.000
    H19      H        0.57510    0.00960    0.06940    1.000
    C36      C        0.54040    0.95560    0.19000    1.000
    C37      C        0.54950    0.99420    0.30160    1.000
    C38      C        0.51420    0.90210    0.19630    1.000
    H20      H        0.50390    0.88760    0.27160    1.000
    C39      C        0.50330    0.86970    0.08860    1.000
    H21      H        0.48520    0.83420    0.09250    1.000
    C40      C        0.51920    0.89040    0.97870    1.000
    H22      H        0.51140    0.86910    0.90780    1.000
    C41      C        0.81300    0.89330    0.49340    1.000
    Co4      Co       0.54452    0.96408    0.57479    1.000
    Co5      Co       0.59077    0.08987    0.43605    1.000
    Co6      Co       0.63362    0.04395    0.71369    1.000
    O12      O        0.57670    0.05100    0.59410    1.000
    O13      O        0.81959    0.91260    0.59630    1.000
    O14      O        0.84463    0.88500    0.41620    1.000
    O15      O        0.59407    0.00650    0.84900    1.000
    O16      O        0.54454    0.94200    0.75540    1.000
    O17      O        0.50756    0.88210    0.54930    1.000
    O18      O        0.44339    0.83810    0.62170    1.000
    O19      O        0.52301    0.98523    0.39310    1.000
    O20      O        0.60294    0.92520    0.50610    1.000
    O21      O        0.65469    0.96180    0.63940    1.000
    O22      O        0.58256    0.03040    0.29910    1.000
    H23      H        0.55800    0.07700    0.62100    1.000
    C42      C        0.75520    0.85410    0.33660    1.000
    H24      H        0.77920    0.83690    0.29120    1.000
    C43      C        0.70950    0.85480    0.29000    1.000
    H25      H        0.70360    0.84710    0.20770    1.000
    C44      C        0.67310    0.86750    0.37200    1.000
    H26      H        0.64290    0.85540    0.35300    1.000
    C45      C        0.75490    0.67130    0.10900    1.000
    H27      H        0.77700    0.70240    0.11760    1.000
    C46      C        0.70900    0.67640    0.16500    1.000
    H28      H        0.70180    0.68780    0.24470    1.000
    C47      C        0.67380    0.65800    0.05800    1.000
    H29      H        0.65030    0.68350    0.02880    1.000
    C48      C        0.64330    0.56900    0.95190    1.000
    C49      C        0.68210    0.60140    0.01640    1.000
    C50      C        0.72770    0.59280    0.98150    1.000
    H30      H        0.73390    0.56820    0.91380    1.000
    C51      C        0.76430    0.61910    0.04270    1.000
    C52      C        0.48750    0.65820    0.88700    1.000
    C53      C        0.51450    0.70650    0.81660    1.000
    C54      C        0.56310    0.70710    0.81540    1.000
    H31      H        0.57930    0.67760    0.86020    1.000
    C55      C        0.56320    0.53450    0.65420    1.000
    C56      C        0.54630    0.55830    0.52940    1.000
    C57      C        0.55680    0.52560    0.42490    1.000
    H32      H        0.57510    0.49040    0.43060    1.000
    C58      C        0.54040    0.54440    0.31000    1.000
    C59      C        0.54950    0.50580    0.19840    1.000
    C60      C        0.51420    0.59790    0.30370    1.000
    H33      H        0.50390    0.61240    0.22840    1.000
    C61      C        0.50330    0.63030    0.41140    1.000
    H34      H        0.48520    0.66580    0.40750    1.000
    C62      C        0.51920    0.60960    0.52130    1.000
    H35      H        0.51140    0.63090    0.59220    1.000
    C63      C        0.81300    0.60670    0.00660    1.000
    Co7      Co       0.54452    0.53592    0.92521    1.000
    Co8      Co       0.59077    0.41013    0.06395    1.000
    Co9      Co       0.63362    0.45605    0.78631    1.000
    O23      O        0.57670    0.44900    0.90590    1.000
    O24      O        0.81959    0.58740    0.90370    1.000
    O25      O        0.84463    0.61500    0.08380    1.000
    O26      O        0.59407    0.49350    0.65100    1.000
    O27      O        0.54454    0.55800    0.74460    1.000
    O28      O        0.50756    0.61790    0.95070    1.000
    O29      O        0.44339    0.66190    0.87830    1.000
    O30      O        0.52301    0.51477    0.10690    1.000
    O31      O        0.60294    0.57480    0.99390    1.000
    O32      O        0.65469    0.53820    0.86060    1.000
    O33      O        0.58256    0.46960    0.20090    1.000
    H36      H        0.55800    0.42300    0.87900    1.000
    C64      C        0.75520    0.64590    0.16340    1.000
    H37      H        0.77920    0.66310    0.20880    1.000
    C65      C        0.70950    0.64520    0.21000    1.000
    H38      H        0.70360    0.65290    0.29230    1.000
    C66      C        0.67310    0.63250    0.12800    1.000
    H39      H        0.64290    0.64460    0.14700    1.000
    C67      C        0.74510    0.32870    0.10900    1.000
    H40      H        0.72300    0.29760    0.11760    1.000
    C68      C        0.79100    0.32360    0.16500    1.000
    H41      H        0.79820    0.31220    0.24470    1.000
    C69      C        0.82620    0.34200    0.05800    1.000
    H42      H        0.84970    0.31650    0.02880    1.000
    C70      C        0.85670    0.43100    0.95190    1.000
    C71      C        0.81790    0.39860    0.01640    1.000
    C72      C        0.77230    0.40720    0.98150    1.000
    H43      H        0.76610    0.43180    0.91380    1.000
    C73      C        0.73570    0.38090    0.04270    1.000
    C74      C        0.01250    0.34180    0.88700    1.000
    C75      C        0.98550    0.29350    0.81660    1.000
    C76      C        0.93690    0.29290    0.81540    1.000
    H44      H        0.92070    0.32240    0.86020    1.000
    C77      C        0.93680    0.46550    0.65420    1.000
    C78      C        0.95370    0.44170    0.52940    1.000
    C79      C        0.94320    0.47440    0.42490    1.000
    H45      H        0.92490    0.50960    0.43060    1.000
    C80      C        0.95960    0.45560    0.31000    1.000
    C81      C        0.95050    0.49420    0.19840    1.000
    C82      C        0.98580    0.40210    0.30370    1.000
    H46      H        0.99610    0.38760    0.22840    1.000
    C83      C        0.99670    0.36970    0.41140    1.000
    H47      H        0.01480    0.33420    0.40750    1.000
    C84      C        0.98080    0.39040    0.52130    1.000
    H48      H        0.98860    0.36910    0.59220    1.000
    C85      C        0.68700    0.39330    0.00660    1.000
    Co10     Co       0.95548    0.46408    0.92521    1.000
    Co11     Co       0.90923    0.58987    0.06395    1.000
    Co12     Co       0.86638    0.54395    0.78631    1.000
    O34      O        0.92330    0.55100    0.90590    1.000
    O35      O        0.68041    0.41260    0.90370    1.000
    O36      O        0.65537    0.38500    0.08380    1.000
    O37      O        0.90593    0.50650    0.65100    1.000
    O38      O        0.95546    0.44200    0.74460    1.000
    O39      O        0.99244    0.38210    0.95070    1.000
    O40      O        0.05661    0.33810    0.87830    1.000
    O41      O        0.97699    0.48523    0.10690    1.000
    O42      O        0.89706    0.42520    0.99390    1.000
    O43      O        0.84531    0.46180    0.86060    1.000
    O44      O        0.91744    0.53040    0.20090    1.000
    H49      H        0.94200    0.57700    0.87900    1.000
    C86      C        0.74480    0.35410    0.16340    1.000
    H50      H        0.72080    0.33690    0.20880    1.000
    C87      C        0.79050    0.35480    0.21000    1.000
    H51      H        0.79640    0.34710    0.29230    1.000
    C88      C        0.82690    0.36750    0.12800    1.000
    H52      H        0.85710    0.35540    0.14700    1.000
    C89      C        0.25490    0.82870    0.60900    1.000
    H53      H        0.27700    0.79760    0.61760    1.000
    C90      C        0.20900    0.82360    0.66500    1.000
    H54      H        0.20180    0.81220    0.74470    1.000
    C91      C        0.17380    0.84200    0.55800    1.000
    H55      H        0.15030    0.81650    0.52880    1.000
    C92      C        0.14330    0.93100    0.45190    1.000
    C93      C        0.18210    0.89860    0.51640    1.000
    C94      C        0.22770    0.90720    0.48150    1.000
    H56      H        0.23390    0.93180    0.41380    1.000
    C95      C        0.26430    0.88090    0.54270    1.000
    C96      C        0.98750    0.84180    0.38700    1.000
    C97      C        0.01450    0.79350    0.31660    1.000
    C98      C        0.06310    0.79290    0.31540    1.000
    H57      H        0.07930    0.82240    0.36020    1.000
    C99      C        0.06320    0.96550    0.15420    1.000
    C100     C        0.04630    0.94170    0.02940    1.000
    C101     C        0.05680    0.97440    0.92490    1.000
    H58      H        0.07510    0.00960    0.93060    1.000
    C102     C        0.04040    0.95560    0.81000    1.000
    C103     C        0.04950    0.99420    0.69840    1.000
    C104     C        0.01420    0.90210    0.80370    1.000
    H59      H        0.00390    0.88760    0.72840    1.000
    C105     C        0.00330    0.86970    0.91140    1.000
    H60      H        0.98520    0.83420    0.90750    1.000
    C106     C        0.01920    0.89040    0.02130    1.000
    H61      H        0.01140    0.86910    0.09220    1.000
    C107     C        0.31300    0.89330    0.50660    1.000
    Co13     Co       0.04452    0.96408    0.42521    1.000
    Co14     Co       0.09077    0.08987    0.56395    1.000
    Co15     Co       0.13362    0.04395    0.28631    1.000
    O45      O        0.07670    0.05100    0.40590    1.000
    O46      O        0.31959    0.91260    0.40370    1.000
    O47      O        0.34463    0.88500    0.58380    1.000
    O48      O        0.09407    0.00650    0.15100    1.000
    O49      O        0.04454    0.94200    0.24460    1.000
    O50      O        0.00756    0.88210    0.45070    1.000
    O51      O        0.94339    0.83810    0.37830    1.000
    O52      O        0.02301    0.98523    0.60690    1.000
    O53      O        0.10294    0.92520    0.49390    1.000
    O54      O        0.15469    0.96180    0.36060    1.000
    O55      O        0.08256    0.03040    0.70090    1.000
    H62      H        0.05800    0.07700    0.37900    1.000
    C108     C        0.25520    0.85410    0.66340    1.000
    H63      H        0.27920    0.83690    0.70880    1.000
    C109     C        0.20950    0.85480    0.71000    1.000
    H64      H        0.20360    0.84710    0.79230    1.000
    C110     C        0.17310    0.86750    0.62800    1.000
    H65      H        0.14290    0.85540    0.64700    1.000
    C111     C        0.24510    0.17130    0.60900    1.000
    H66      H        0.22300    0.20240    0.61760    1.000
    C112     C        0.29100    0.17640    0.66500    1.000
    H67      H        0.29820    0.18780    0.74470    1.000
    C113     C        0.32620    0.15800    0.55800    1.000
    H68      H        0.34970    0.18350    0.52880    1.000
    C114     C        0.35670    0.06900    0.45190    1.000
    C115     C        0.31790    0.10140    0.51640    1.000
    C116     C        0.27230    0.09280    0.48150    1.000
    H69      H        0.26610    0.06820    0.41380    1.000
    C117     C        0.23570    0.11910    0.54270    1.000
    C118     C        0.51250    0.15820    0.38700    1.000
    C119     C        0.48550    0.20650    0.31660    1.000
    C120     C        0.43690    0.20710    0.31540    1.000
    H70      H        0.42070    0.17760    0.36020    1.000
    C121     C        0.43680    0.03450    0.15420    1.000
    C122     C        0.45370    0.05830    0.02940    1.000
    C123     C        0.44320    0.02560    0.92490    1.000
    H71      H        0.42490    0.99040    0.93060    1.000
    C124     C        0.45960    0.04440    0.81000    1.000
    C125     C        0.45050    0.00580    0.69840    1.000
    C126     C        0.48580    0.09790    0.80370    1.000
    H72      H        0.49610    0.11240    0.72840    1.000
    C127     C        0.49670    0.13030    0.91140    1.000
    H73      H        0.51480    0.16580    0.90750    1.000
    C128     C        0.48080    0.10960    0.02130    1.000
    H74      H        0.48860    0.13090    0.09220    1.000
    C129     C        0.18700    0.10670    0.50660    1.000
    Co16     Co       0.45548    0.03592    0.42521    1.000
    Co17     Co       0.40923    0.91013    0.56395    1.000
    Co18     Co       0.36638    0.95605    0.28631    1.000
    O56      O        0.42330    0.94900    0.40590    1.000
    O57      O        0.18041    0.08740    0.40370    1.000
    O58      O        0.15537    0.11500    0.58380    1.000
    O59      O        0.40593    0.99350    0.15100    1.000
    O60      O        0.45546    0.05800    0.24460    1.000
    O61      O        0.49244    0.11790    0.45070    1.000
    O62      O        0.55661    0.16190    0.37830    1.000
    O63      O        0.47699    0.01477    0.60690    1.000
    O64      O        0.39706    0.07480    0.49390    1.000
    O65      O        0.34531    0.03820    0.36060    1.000
    O66      O        0.41744    0.96960    0.70090    1.000
    H75      H        0.44200    0.92300    0.37900    1.000
    C130     C        0.24480    0.14590    0.66340    1.000
    H76      H        0.22080    0.16310    0.70880    1.000
    C131     C        0.29050    0.14520    0.71000    1.000
    H77      H        0.29640    0.15290    0.79230    1.000
    C132     C        0.32690    0.13250    0.62800    1.000
    H78      H        0.35710    0.14460    0.64700    1.000
    C133     C        0.24510    0.32870    0.89100    1.000
    H79      H        0.22300    0.29760    0.88240    1.000
    C134     C        0.29100    0.32360    0.83500    1.000
    H80      H        0.29820    0.31220    0.75530    1.000
    C135     C        0.32620    0.34200    0.94200    1.000
    H81      H        0.34970    0.31650    0.97120    1.000
    C136     C        0.35670    0.43100    0.04810    1.000
    C137     C        0.31790    0.39860    0.98360    1.000
    C138     C        0.27230    0.40720    0.01850    1.000
    H82      H        0.26610    0.43180    0.08620    1.000
    C139     C        0.23570    0.38090    0.95730    1.000
    C140     C        0.51250    0.34180    0.11300    1.000
    C141     C        0.48550    0.29350    0.18340    1.000
    C142     C        0.43690    0.29290    0.18460    1.000
    H83      H        0.42070    0.32240    0.13980    1.000
    C143     C        0.43680    0.46550    0.34580    1.000
    C144     C        0.45370    0.44170    0.47060    1.000
    C145     C        0.44320    0.47440    0.57510    1.000
    H84      H        0.42490    0.50960    0.56940    1.000
    C146     C        0.45960    0.45560    0.69000    1.000
    C147     C        0.45050    0.49420    0.80160    1.000
    C148     C        0.48580    0.40210    0.69630    1.000
    H85      H        0.49610    0.38760    0.77160    1.000
    C149     C        0.49670    0.36970    0.58860    1.000
    H86      H        0.51480    0.33420    0.59250    1.000
    C150     C        0.48080    0.39040    0.47870    1.000
    H87      H        0.48860    0.36910    0.40780    1.000
    C151     C        0.18700    0.39330    0.99340    1.000
    Co19     Co       0.45548    0.46408    0.07479    1.000
    Co20     Co       0.40923    0.58987    0.93605    1.000
    Co21     Co       0.36638    0.54395    0.21369    1.000
    O67      O        0.42330    0.55100    0.09410    1.000
    O68      O        0.18041    0.41260    0.09630    1.000
    O69      O        0.15537    0.38500    0.91620    1.000
    O70      O        0.40593    0.50650    0.34900    1.000
    O71      O        0.45546    0.44200    0.25540    1.000
    O72      O        0.49244    0.38210    0.04930    1.000
    O73      O        0.55661    0.33810    0.12170    1.000
    O74      O        0.47699    0.48523    0.89310    1.000
    O75      O        0.39706    0.42520    0.00610    1.000
    O76      O        0.34531    0.46180    0.13940    1.000
    O77      O        0.41744    0.53040    0.79910    1.000
    H88      H        0.44200    0.57700    0.12100    1.000
    C152     C        0.24480    0.35410    0.83660    1.000
    H89      H        0.22080    0.33690    0.79120    1.000
    C153     C        0.29050    0.35480    0.79000    1.000
    H90      H        0.29640    0.34710    0.70770    1.000
    C154     C        0.32690    0.36750    0.87200    1.000
    H91      H        0.35710    0.35540    0.85300    1.000
    C155     C        0.25490    0.67130    0.89100    1.000
    H92      H        0.27700    0.70240    0.88240    1.000
    C156     C        0.20900    0.67640    0.83500    1.000
    H93      H        0.20180    0.68780    0.75530    1.000
    C157     C        0.17380    0.65800    0.94200    1.000
    H94      H        0.15030    0.68350    0.97120    1.000
    C158     C        0.14330    0.56900    0.04810    1.000
    C159     C        0.18210    0.60140    0.98360    1.000
    C160     C        0.22770    0.59280    0.01850    1.000
    H95      H        0.23390    0.56820    0.08620    1.000
    C161     C        0.26430    0.61910    0.95730    1.000
    C162     C        0.98750    0.65820    0.11300    1.000
    C163     C        0.01450    0.70650    0.18340    1.000
    C164     C        0.06310    0.70710    0.18460    1.000
    H96      H        0.07930    0.67760    0.13980    1.000
    C165     C        0.06320    0.53450    0.34580    1.000
    C166     C        0.04630    0.55830    0.47060    1.000
    C167     C        0.05680    0.52560    0.57510    1.000
    H97      H        0.07510    0.49040    0.56940    1.000
    C168     C        0.04040    0.54440    0.69000    1.000
    C169     C        0.04950    0.50580    0.80160    1.000
    C170     C        0.01420    0.59790    0.69630    1.000
    H98      H        0.00390    0.61240    0.77160    1.000
    C171     C        0.00330    0.63030    0.58860    1.000
    H99      H        0.98520    0.66580    0.59250    1.000
    C172     C        0.01920    0.60960    0.47870    1.000
    H100     H        0.01140    0.63090    0.40780    1.000
    C173     C        0.31300    0.60670    0.99340    1.000
    Co22     Co       0.04452    0.53592    0.07479    1.000
    Co23     Co       0.09077    0.41013    0.93605    1.000
    Co24     Co       0.13362    0.45605    0.21369    1.000
    O78      O        0.07670    0.44900    0.09410    1.000
    O79      O        0.31959    0.58740    0.09630    1.000
    O80      O        0.34463    0.61500    0.91620    1.000
    O81      O        0.09407    0.49350    0.34900    1.000
    O82      O        0.04454    0.55800    0.25540    1.000
    O83      O        0.00756    0.61790    0.04930    1.000
    O84      O        0.94339    0.66190    0.12170    1.000
    O85      O        0.02301    0.51477    0.89310    1.000
    O86      O        0.10294    0.57480    0.00610    1.000
    O87      O        0.15469    0.53820    0.13940    1.000
    O88      O        0.08256    0.46960    0.79910    1.000
    H101     H        0.05800    0.42300    0.12100    1.000
    C174     C        0.25520    0.64590    0.83660    1.000
    H102     H        0.27920    0.66310    0.79120    1.000
    C175     C        0.20950    0.64520    0.79000    1.000
    H103     H        0.20360    0.65290    0.70770    1.000
    C176     C        0.17310    0.63250    0.87200    1.000
    H104     H        0.14290    0.64460    0.85300    1.000
    C177     C        0.00860    0.25000    0.75000    1.000
    H105     H        0.04090    0.25000    0.75000    1.000
    C178     C        0.91280    0.25000    0.75000    1.000
    H106     H        0.88050    0.25000    0.75000    1.000
    C179     C        0.49140    0.75000    0.75000    1.000
    H107     H        0.45910    0.75000    0.75000    1.000
    C180     C        0.58720    0.75000    0.75000    1.000
    H108     H        0.61950    0.75000    0.75000    1.000
    C181     C        0.99140    0.75000    0.25000    1.000
    H109     H        0.95910    0.75000    0.25000    1.000
    C182     C        0.08720    0.75000    0.25000    1.000
    H110     H        0.11950    0.75000    0.25000    1.000
    C183     C        0.50860    0.25000    0.25000    1.000
    H111     H        0.54090    0.25000    0.25000    1.000
    C184     C        0.41280    0.25000    0.25000    1.000
    H112     H        0.38050    0.25000    0.25000    1.000
