# CIF file generated by openbabel 3.1.0, see https://openbabel.org
data_I
_chemical_name_common 'image0'
_cell_length_a 10.4305
_cell_length_b 10.5272
_cell_length_c 6.2956
_cell_angle_alpha 90
_cell_angle_beta 115.16
_cell_angle_gamma 90
_space_group_name_H-M_alt 'P 1'
_space_group_name_Hall 'P 1'
loop_
    _symmetry_equiv_pos_as_xyz
    x,y,z
loop_
    _atom_site_label
    _atom_site_type_symbol
    _atom_site_fract_x
    _atom_site_fract_y
    _atom_site_fract_z
    _atom_site_occupancy
    C1       C        0.31640    0.21040    0.54610    1.000
    H1       H        0.39720    0.26520    0.57730    1.000
    H2       H        0.32860    0.17170    0.69330    1.000
    N1       N        0.31300    0.11040    0.38140    1.000
    H3       H        0.29870    0.14660    0.24360    1.000
    H4       H        0.23900    0.05880    0.35560    1.000
    C2       C        0.81640    0.71040    0.54610    1.000
    H5       H        0.89720    0.76520    0.57730    1.000
    H6       H        0.82860    0.67170    0.69330    1.000
    N2       N        0.81300    0.61040    0.38140    1.000
    H7       H        0.79870    0.64660    0.24360    1.000
    H8       H        0.73900    0.55880    0.35560    1.000
    C3       C        0.68360    0.21040    0.95390    1.000
    H9       H        0.60280    0.26520    0.92270    1.000
    H10      H        0.67140    0.17170    0.80670    1.000
    N3       N        0.68700    0.11040    0.11860    1.000
    H11      H        0.70130    0.14660    0.25640    1.000
    H12      H        0.76100    0.05880    0.14440    1.000
    C4       C        0.18360    0.71040    0.95390    1.000
    H13      H        0.10280    0.76520    0.92270    1.000
    H14      H        0.17140    0.67170    0.80670    1.000
    N4       N        0.18700    0.61040    0.11860    1.000
    H15      H        0.20130    0.64660    0.25640    1.000
    H16      H        0.26100    0.55880    0.14440    1.000
    C5       C        0.68360    0.78960    0.45390    1.000
    H17      H        0.60280    0.73480    0.42270    1.000
    H18      H        0.67140    0.82830    0.30670    1.000
    N5       N        0.68700    0.88960    0.61860    1.000
    H19      H        0.70130    0.85340    0.75640    1.000
    H20      H        0.76100    0.94120    0.64440    1.000
    C6       C        0.18360    0.28960    0.45390    1.000
    H21      H        0.10280    0.23480    0.42270    1.000
    H22      H        0.17140    0.32830    0.30670    1.000
    N6       N        0.18700    0.38960    0.61860    1.000
    H23      H        0.20130    0.35340    0.75640    1.000
    H24      H        0.26100    0.44120    0.64440    1.000
    C7       C        0.31640    0.78960    0.04610    1.000
    H25      H        0.39720    0.73480    0.07730    1.000
    H26      H        0.32860    0.82830    0.19330    1.000
    N7       N        0.31300    0.88960    0.88140    1.000
    H27      H        0.29870    0.85340    0.74360    1.000
    H28      H        0.23900    0.94120    0.85560    1.000
    C8       C        0.81640    0.28960    0.04610    1.000
    H29      H        0.89720    0.23480    0.07730    1.000
    H30      H        0.82860    0.32830    0.19330    1.000
    N8       N        0.81300    0.38960    0.88140    1.000
    H31      H        0.79870    0.35340    0.74360    1.000
    H32      H        0.73900    0.44120    0.85560    1.000
    Ag1      Ag       0.50000    0.00000    0.50000    1.000
    Ag2      Ag       0.00000    0.50000    0.50000    1.000
    Ag3      Ag       0.50000    0.00000    0.00000    1.000
    Ag4      Ag       0.00000    0.50000    0.00000    1.000
