# CIF file generated by openbabel 3.1.0, see https://openbabel.org
data_I
_chemical_name_common 'image0'
_cell_length_a 18.8226
_cell_length_b 18.6427
_cell_length_c 14.2485
_cell_angle_alpha 90
_cell_angle_beta 130.175
_cell_angle_gamma 90
_space_group_name_H-M_alt 'P 1'
_space_group_name_Hall 'P 1'
loop_
    _symmetry_equiv_pos_as_xyz
    x,y,z
loop_
    _atom_site_label
    _atom_site_type_symbol
    _atom_site_fract_x
    _atom_site_fract_y
    _atom_site_fract_z
    _atom_site_occupancy
    C1       C        0.68590    0.33870    0.11750    1.000
    C2       C        0.68970    0.31690    0.02770    1.000
    H1       H        0.65250    0.33980    0.95190    1.000
    C3       C        0.74790    0.26130    0.04860    1.000
    C4       C        0.80070    0.22850    0.16180    1.000
    H2       H        0.84130    0.19210    0.17870    1.000
    C5       C        0.79590    0.24720    0.25110    1.000
    C6       C        0.73870    0.30400    0.22940    1.000
    H3       H        0.73620    0.31840    0.28970    1.000
    C7       C        0.62190    0.39920    0.08780    1.000
    C8       C        0.85600    0.20670    0.37150    1.000
    C9       C        0.53580    0.44270    0.33060    1.000
    N1       N        0.52770    0.46210    0.41250    1.000
    N2       N        0.53900    0.37420    0.30420    1.000
    H4       H        0.53560    0.33990    0.34140    1.000
    H5       H        0.54440    0.36470    0.24990    1.000
    O1       O        0.62100    0.42050    0.17030    1.000
    O2       O        0.57360    0.42430    0.98220    1.000
    O3       O        0.85600    0.22050    0.45520    1.000
    O4       O        0.90040    0.15660    0.37330    1.000
    C10      C        0.18590    0.83870    0.11750    1.000
    C11      C        0.18970    0.81690    0.02770    1.000
    H6       H        0.15250    0.83980    0.95190    1.000
    C12      C        0.24790    0.76130    0.04860    1.000
    C13      C        0.30070    0.72850    0.16180    1.000
    H7       H        0.34130    0.69210    0.17870    1.000
    C14      C        0.29590    0.74720    0.25110    1.000
    C15      C        0.23870    0.80400    0.22940    1.000
    H8       H        0.23620    0.81840    0.28970    1.000
    C16      C        0.12190    0.89920    0.08780    1.000
    C17      C        0.35600    0.70670    0.37150    1.000
    C18      C        0.03580    0.94270    0.33060    1.000
    N3       N        0.02770    0.96210    0.41250    1.000
    N4       N        0.03900    0.87420    0.30420    1.000
    H9       H        0.03560    0.83990    0.34140    1.000
    H10      H        0.04440    0.86470    0.24990    1.000
    O5       O        0.12100    0.92050    0.17030    1.000
    O6       O        0.07360    0.92430    0.98220    1.000
    O7       O        0.35600    0.72050    0.45520    1.000
    O8       O        0.40040    0.65660    0.37330    1.000
    C19      C        0.31410    0.33870    0.88250    1.000
    C20      C        0.31030    0.31690    0.97230    1.000
    H11      H        0.34750    0.33980    0.04810    1.000
    C21      C        0.25210    0.26130    0.95140    1.000
    C22      C        0.19930    0.22850    0.83820    1.000
    H12      H        0.15870    0.19210    0.82130    1.000
    C23      C        0.20410    0.24720    0.74890    1.000
    C24      C        0.26130    0.30400    0.77060    1.000
    H13      H        0.26380    0.31840    0.71030    1.000
    C25      C        0.37810    0.39920    0.91220    1.000
    C26      C        0.14400    0.20670    0.62850    1.000
    C27      C        0.46420    0.44270    0.66940    1.000
    N5       N        0.47230    0.46210    0.58750    1.000
    N6       N        0.46100    0.37420    0.69580    1.000
    H14      H        0.46440    0.33990    0.65860    1.000
    H15      H        0.45560    0.36470    0.75010    1.000
    O9       O        0.37900    0.42050    0.82970    1.000
    O10      O        0.42640    0.42430    0.01780    1.000
    O11      O        0.14400    0.22050    0.54480    1.000
    O12      O        0.09960    0.15660    0.62670    1.000
    C28      C        0.81410    0.83870    0.88250    1.000
    C29      C        0.81030    0.81690    0.97230    1.000
    H16      H        0.84750    0.83980    0.04810    1.000
    C30      C        0.75210    0.76130    0.95140    1.000
    C31      C        0.69930    0.72850    0.83820    1.000
    H17      H        0.65870    0.69210    0.82130    1.000
    C32      C        0.70410    0.74720    0.74890    1.000
    C33      C        0.76130    0.80400    0.77060    1.000
    H18      H        0.76380    0.81840    0.71030    1.000
    C34      C        0.87810    0.89920    0.91220    1.000
    C35      C        0.64400    0.70670    0.62850    1.000
    C36      C        0.96420    0.94270    0.66940    1.000
    N7       N        0.97230    0.96210    0.58750    1.000
    N8       N        0.96100    0.87420    0.69580    1.000
    H19      H        0.96440    0.83990    0.65860    1.000
    H20      H        0.95560    0.86470    0.75010    1.000
    O13      O        0.87900    0.92050    0.82970    1.000
    O14      O        0.92640    0.92430    0.01780    1.000
    O15      O        0.64400    0.72050    0.54480    1.000
    O16      O        0.59960    0.65660    0.62670    1.000
    C37      C        0.31410    0.66130    0.88250    1.000
    C38      C        0.31030    0.68310    0.97230    1.000
    H21      H        0.34750    0.66020    0.04810    1.000
    C39      C        0.25210    0.73870    0.95140    1.000
    C40      C        0.19930    0.77150    0.83820    1.000
    H22      H        0.15870    0.80790    0.82130    1.000
    C41      C        0.20410    0.75280    0.74890    1.000
    C42      C        0.26130    0.69600    0.77060    1.000
    H23      H        0.26380    0.68160    0.71030    1.000
    C43      C        0.37810    0.60080    0.91220    1.000
    C44      C        0.14400    0.79330    0.62850    1.000
    C45      C        0.46420    0.55730    0.66940    1.000
    N9       N        0.47230    0.53790    0.58750    1.000
    N10      N        0.46100    0.62580    0.69580    1.000
    H24      H        0.46440    0.66010    0.65860    1.000
    H25      H        0.45560    0.63530    0.75010    1.000
    O17      O        0.37900    0.57950    0.82970    1.000
    O18      O        0.42640    0.57570    0.01780    1.000
    O19      O        0.14400    0.77950    0.54480    1.000
    O20      O        0.09960    0.84340    0.62670    1.000
    C46      C        0.81410    0.16130    0.88250    1.000
    C47      C        0.81030    0.18310    0.97230    1.000
    H26      H        0.84750    0.16020    0.04810    1.000
    C48      C        0.75210    0.23870    0.95140    1.000
    C49      C        0.69930    0.27150    0.83820    1.000
    H27      H        0.65870    0.30790    0.82130    1.000
    C50      C        0.70410    0.25280    0.74890    1.000
    C51      C        0.76130    0.19600    0.77060    1.000
    H28      H        0.76380    0.18160    0.71030    1.000
    C52      C        0.87810    0.10080    0.91220    1.000
    C53      C        0.64400    0.29330    0.62850    1.000
    C54      C        0.96420    0.05730    0.66940    1.000
    N11      N        0.97230    0.03790    0.58750    1.000
    N12      N        0.96100    0.12580    0.69580    1.000
    H29      H        0.96440    0.16010    0.65860    1.000
    H30      H        0.95560    0.13530    0.75010    1.000
    O21      O        0.87900    0.07950    0.82970    1.000
    O22      O        0.92640    0.07570    0.01780    1.000
    O23      O        0.64400    0.27950    0.54480    1.000
    O24      O        0.59960    0.34340    0.62670    1.000
    C55      C        0.68590    0.66130    0.11750    1.000
    C56      C        0.68970    0.68310    0.02770    1.000
    H31      H        0.65250    0.66020    0.95190    1.000
    C57      C        0.74790    0.73870    0.04860    1.000
    C58      C        0.80070    0.77150    0.16180    1.000
    H32      H        0.84130    0.80790    0.17870    1.000
    C59      C        0.79590    0.75280    0.25110    1.000
    C60      C        0.73870    0.69600    0.22940    1.000
    H33      H        0.73620    0.68160    0.28970    1.000
    C61      C        0.62190    0.60080    0.08780    1.000
    C62      C        0.85600    0.79330    0.37150    1.000
    C63      C        0.53580    0.55730    0.33060    1.000
    N13      N        0.52770    0.53790    0.41250    1.000
    N14      N        0.53900    0.62580    0.30420    1.000
    H34      H        0.53560    0.66010    0.34140    1.000
    H35      H        0.54440    0.63530    0.24990    1.000
    O25      O        0.62100    0.57950    0.17030    1.000
    O26      O        0.57360    0.57570    0.98220    1.000
    O27      O        0.85600    0.77950    0.45520    1.000
    O28      O        0.90040    0.84340    0.37330    1.000
    C64      C        0.18590    0.16130    0.11750    1.000
    C65      C        0.18970    0.18310    0.02770    1.000
    H36      H        0.15250    0.16020    0.95190    1.000
    C66      C        0.24790    0.23870    0.04860    1.000
    C67      C        0.30070    0.27150    0.16180    1.000
    H37      H        0.34130    0.30790    0.17870    1.000
    C68      C        0.29590    0.25280    0.25110    1.000
    C69      C        0.23870    0.19600    0.22940    1.000
    H38      H        0.23620    0.18160    0.28970    1.000
    C70      C        0.12190    0.10080    0.08780    1.000
    C71      C        0.35600    0.29330    0.37150    1.000
    C72      C        0.03580    0.05730    0.33060    1.000
    N15      N        0.02770    0.03790    0.41250    1.000
    N16      N        0.03900    0.12580    0.30420    1.000
    H39      H        0.03560    0.16010    0.34140    1.000
    H40      H        0.04440    0.13530    0.24990    1.000
    O29      O        0.12100    0.07950    0.17030    1.000
    O30      O        0.07360    0.07570    0.98220    1.000
    O31      O        0.35600    0.27950    0.45520    1.000
    O32      O        0.40040    0.34340    0.37330    1.000
    Zn1      Zn       0.52995    0.50000    0.12682    1.000
    N17      N        0.53980    0.50000    0.27570    1.000
    Zn2      Zn       0.02995    0.00000    0.12682    1.000
    N18      N        0.03980    0.00000    0.27570    1.000
    Zn3      Zn       0.47005    0.50000    0.87318    1.000
    N19      N        0.46020    0.50000    0.72430    1.000
    Zn4      Zn       0.97005    0.00000    0.87318    1.000
    N20      N        0.96020    0.00000    0.72430    1.000
    Zn5      Zn       0.00000    0.09694    0.50000    1.000
    Zn6      Zn       0.50000    0.59694    0.50000    1.000
    Zn7      Zn       0.00000    0.90306    0.50000    1.000
    Zn8      Zn       0.50000    0.40306    0.50000    1.000
