# CIF file generated by openbabel 3.1.0, see https://openbabel.org
data_I
_chemical_name_common 'image0'
_cell_length_a 14.0086
_cell_length_b 16.332
_cell_length_c 16.622
_cell_angle_alpha 90
_cell_angle_beta 90
_cell_angle_gamma 90
_space_group_name_H-M_alt 'P 1'
_space_group_name_Hall 'P 1'
loop_
    _symmetry_equiv_pos_as_xyz
    x,y,z
loop_
    _atom_site_label
    _atom_site_type_symbol
    _atom_site_fract_x
    _atom_site_fract_y
    _atom_site_fract_z
    _atom_site_occupancy
    Ni1      Ni       0.97368    0.17556    0.61066    1.000
    C1       C        0.75260    0.99679    0.65727    1.000
    C2       C        0.71905    0.92024    0.63312    1.000
    H1       H        0.74550    0.89420    0.58710    1.000
    C3       C        0.64662    0.88192    0.67670    1.000
    C4       C        0.60947    0.92028    0.74457    1.000
    H2       H        0.56370    0.89250    0.77670    1.000
    C5       C        0.63842    0.99841    0.76579    1.000
    C6       C        0.71062    0.03695    0.72173    1.000
    H3       H        0.73090    0.09060    0.73590    1.000
    C7       C        0.83818    0.03560    0.61566    1.000
    C8       C        0.60771    0.79961    0.65169    1.000
    C9       C        0.59061    0.03946    0.83615    1.000
    O1       O        0.87360    0.09738    0.65006    1.000
    O2       O        0.86694    0.00046    0.55263    1.000
    O3       O        0.63326    0.76855    0.58595    1.000
    O4       O        0.54746    0.76484    0.69616    1.000
    O5       O        0.56128    0.99269    0.88931    1.000
    O6       O        0.58225    0.11670    0.83378    1.000
    C10      C        0.91843    0.80620    0.60873    1.000
    H4       H        0.84870    0.80200    0.60990    1.000
    H5       H        0.94640    0.75740    0.63360    1.000
    H6       H        0.93850    0.85500    0.63860    1.000
    C11      C        0.95185    0.81271    0.52286    1.000
    O7       O        0.93247    0.75818    0.47240    1.000
    O8       O        0.00420    0.87123    0.50144    1.000
    Ni2      Ni       0.52632    0.82444    0.11066    1.000
    C12      C        0.74740    0.00321    0.15727    1.000
    C13      C        0.78095    0.07976    0.13312    1.000
    H7       H        0.75450    0.10580    0.08710    1.000
    C14      C        0.85338    0.11808    0.17670    1.000
    C15      C        0.89053    0.07972    0.24457    1.000
    H8       H        0.93630    0.10750    0.27670    1.000
    C16      C        0.86158    0.00159    0.26579    1.000
    C17      C        0.78938    0.96305    0.22173    1.000
    H9       H        0.76910    0.90940    0.23590    1.000
    C18      C        0.66182    0.96440    0.11566    1.000
    C19      C        0.89229    0.20039    0.15169    1.000
    C20      C        0.90939    0.96054    0.33615    1.000
    O9       O        0.62640    0.90262    0.15006    1.000
    O10      O        0.63306    0.99954    0.05263    1.000
    O11      O        0.86674    0.23145    0.08595    1.000
    O12      O        0.95254    0.23516    0.19616    1.000
    O13      O        0.93872    0.00731    0.38931    1.000
    O14      O        0.91775    0.88330    0.33378    1.000
    C21      C        0.58157    0.19380    0.10873    1.000
    H10      H        0.65130    0.19800    0.10990    1.000
    H11      H        0.55360    0.24260    0.13360    1.000
    H12      H        0.56150    0.14500    0.13860    1.000
    C22      C        0.54815    0.18729    0.02286    1.000
    O15      O        0.56753    0.24182    0.97240    1.000
    O16      O        0.49580    0.12877    0.00144    1.000
    Ni3      Ni       0.02632    0.67556    0.88934    1.000
    C23      C        0.24740    0.49679    0.84273    1.000
    C24      C        0.28095    0.42024    0.86688    1.000
    H13      H        0.25450    0.39420    0.91290    1.000
    C25      C        0.35338    0.38192    0.82330    1.000
    C26      C        0.39053    0.42028    0.75543    1.000
    H14      H        0.43630    0.39250    0.72330    1.000
    C27      C        0.36158    0.49841    0.73421    1.000
    C28      C        0.28938    0.53695    0.77827    1.000
    H15      H        0.26910    0.59060    0.76410    1.000
    C29      C        0.16182    0.53560    0.88434    1.000
    C30      C        0.39229    0.29961    0.84831    1.000
    C31      C        0.40939    0.53946    0.66385    1.000
    O17      O        0.12640    0.59738    0.84994    1.000
    O18      O        0.13306    0.50046    0.94737    1.000
    O19      O        0.36674    0.26855    0.91405    1.000
    O20      O        0.45254    0.26484    0.80384    1.000
    O21      O        0.43872    0.49269    0.61069    1.000
    O22      O        0.41775    0.61670    0.66622    1.000
    C32      C        0.08157    0.30620    0.89127    1.000
    H16      H        0.15130    0.30200    0.89010    1.000
    H17      H        0.05360    0.25740    0.86640    1.000
    H18      H        0.06150    0.35500    0.86140    1.000
    C33      C        0.04815    0.31271    0.97714    1.000
    O23      O        0.06753    0.25818    0.02760    1.000
    O24      O        0.99580    0.37123    0.99856    1.000
    Ni4      Ni       0.47368    0.32444    0.38934    1.000
    C34      C        0.25260    0.50321    0.34273    1.000
    C35      C        0.21905    0.57976    0.36688    1.000
    H19      H        0.24550    0.60580    0.41290    1.000
    C36      C        0.14662    0.61808    0.32330    1.000
    C37      C        0.10947    0.57972    0.25543    1.000
    H20      H        0.06370    0.60750    0.22330    1.000
    C38      C        0.13842    0.50159    0.23421    1.000
    C39      C        0.21062    0.46305    0.27827    1.000
    H21      H        0.23090    0.40940    0.26410    1.000
    C40      C        0.33818    0.46440    0.38434    1.000
    C41      C        0.10771    0.70039    0.34831    1.000
    C42      C        0.09061    0.46054    0.16385    1.000
    O25      O        0.37360    0.40262    0.34994    1.000
    O26      O        0.36694    0.49954    0.44737    1.000
    O27      O        0.13326    0.73145    0.41405    1.000
    O28      O        0.04746    0.73516    0.30384    1.000
    O29      O        0.06128    0.50731    0.11069    1.000
    O30      O        0.08225    0.38330    0.16622    1.000
    C43      C        0.41843    0.69380    0.39127    1.000
    H22      H        0.34870    0.69800    0.39010    1.000
    H23      H        0.44640    0.74260    0.36640    1.000
    H24      H        0.43850    0.64500    0.36140    1.000
    C44      C        0.45185    0.68729    0.47714    1.000
    O31      O        0.43247    0.74182    0.52760    1.000
    O32      O        0.50420    0.62877    0.49856    1.000
    Ni5      Ni       0.02632    0.82444    0.38934    1.000
    C45      C        0.24740    0.00321    0.34273    1.000
    C46      C        0.28095    0.07976    0.36688    1.000
    H25      H        0.25450    0.10580    0.41290    1.000
    C47      C        0.35338    0.11808    0.32330    1.000
    C48      C        0.39053    0.07972    0.25543    1.000
    H26      H        0.43630    0.10750    0.22330    1.000
    C49      C        0.36158    0.00159    0.23421    1.000
    C50      C        0.28938    0.96305    0.27827    1.000
    H27      H        0.26910    0.90940    0.26410    1.000
    C51      C        0.16182    0.96440    0.38434    1.000
    C52      C        0.39229    0.20039    0.34831    1.000
    C53      C        0.40939    0.96054    0.16385    1.000
    O33      O        0.12640    0.90262    0.34994    1.000
    O34      O        0.13306    0.99954    0.44737    1.000
    O35      O        0.36674    0.23145    0.41405    1.000
    O36      O        0.45254    0.23516    0.30384    1.000
    O37      O        0.43872    0.00731    0.11069    1.000
    O38      O        0.41775    0.88330    0.16622    1.000
    C54      C        0.08157    0.19380    0.39127    1.000
    H28      H        0.15130    0.19800    0.39010    1.000
    H29      H        0.05360    0.24260    0.36640    1.000
    H30      H        0.06150    0.14500    0.36140    1.000
    C55      C        0.04815    0.18729    0.47714    1.000
    O39      O        0.06753    0.24182    0.52760    1.000
    O40      O        0.99580    0.12877    0.49856    1.000
    Ni6      Ni       0.47368    0.17556    0.88934    1.000
    C56      C        0.25260    0.99679    0.84273    1.000
    C57      C        0.21905    0.92024    0.86688    1.000
    H31      H        0.24550    0.89420    0.91290    1.000
    C58      C        0.14662    0.88192    0.82330    1.000
    C59      C        0.10947    0.92028    0.75543    1.000
    H32      H        0.06370    0.89250    0.72330    1.000
    C60      C        0.13842    0.99841    0.73421    1.000
    C61      C        0.21062    0.03695    0.77827    1.000
    H33      H        0.23090    0.09060    0.76410    1.000
    C62      C        0.33818    0.03560    0.88434    1.000
    C63      C        0.10771    0.79961    0.84831    1.000
    C64      C        0.09061    0.03946    0.66385    1.000
    O41      O        0.37360    0.09738    0.84994    1.000
    O42      O        0.36694    0.00046    0.94737    1.000
    O43      O        0.13326    0.76855    0.91405    1.000
    O44      O        0.04746    0.76484    0.80384    1.000
    O45      O        0.06128    0.99269    0.61069    1.000
    O46      O        0.08225    0.11670    0.66622    1.000
    C65      C        0.41843    0.80620    0.89127    1.000
    H34      H        0.34870    0.80200    0.89010    1.000
    H35      H        0.44640    0.75740    0.86640    1.000
    H36      H        0.43850    0.85500    0.86140    1.000
    C66      C        0.45185    0.81271    0.97714    1.000
    O47      O        0.43247    0.75818    0.02760    1.000
    O48      O        0.50420    0.87123    0.99856    1.000
    Ni7      Ni       0.97368    0.32444    0.11066    1.000
    C67      C        0.75260    0.50321    0.15727    1.000
    C68      C        0.71905    0.57976    0.13312    1.000
    H37      H        0.74550    0.60580    0.08710    1.000
    C69      C        0.64662    0.61808    0.17670    1.000
    C70      C        0.60947    0.57972    0.24457    1.000
    H38      H        0.56370    0.60750    0.27670    1.000
    C71      C        0.63842    0.50159    0.26579    1.000
    C72      C        0.71062    0.46305    0.22173    1.000
    H39      H        0.73090    0.40940    0.23590    1.000
    C73      C        0.83818    0.46440    0.11566    1.000
    C74      C        0.60771    0.70039    0.15169    1.000
    C75      C        0.59061    0.46054    0.33615    1.000
    O49      O        0.87360    0.40262    0.15006    1.000
    O50      O        0.86694    0.49954    0.05263    1.000
    O51      O        0.63326    0.73145    0.08595    1.000
    O52      O        0.54746    0.73516    0.19616    1.000
    O53      O        0.56128    0.50731    0.38931    1.000
    O54      O        0.58225    0.38330    0.33378    1.000
    C76      C        0.91843    0.69380    0.10873    1.000
    H40      H        0.84870    0.69800    0.10990    1.000
    H41      H        0.94640    0.74260    0.13360    1.000
    H42      H        0.93850    0.64500    0.13860    1.000
    C77      C        0.95185    0.68729    0.02286    1.000
    O55      O        0.93247    0.74182    0.97240    1.000
    O56      O        0.00420    0.62877    0.00144    1.000
    Ni8      Ni       0.52632    0.67556    0.61066    1.000
    C78      C        0.74740    0.49679    0.65727    1.000
    C79      C        0.78095    0.42024    0.63312    1.000
    H43      H        0.75450    0.39420    0.58710    1.000
    C80      C        0.85338    0.38192    0.67670    1.000
    C81      C        0.89053    0.42028    0.74457    1.000
    H44      H        0.93630    0.39250    0.77670    1.000
    C82      C        0.86158    0.49841    0.76579    1.000
    C83      C        0.78938    0.53695    0.72173    1.000
    H45      H        0.76910    0.59060    0.73590    1.000
    C84      C        0.66182    0.53560    0.61566    1.000
    C85      C        0.89229    0.29961    0.65169    1.000
    C86      C        0.90939    0.53946    0.83615    1.000
    O57      O        0.62640    0.59738    0.65006    1.000
    O58      O        0.63306    0.50046    0.55263    1.000
    O59      O        0.86674    0.26855    0.58595    1.000
    O60      O        0.95254    0.26484    0.69616    1.000
    O61      O        0.93872    0.49269    0.88931    1.000
    O62      O        0.91775    0.61670    0.83378    1.000
    C87      C        0.58157    0.30620    0.60873    1.000
    H46      H        0.65130    0.30200    0.60990    1.000
    H47      H        0.55360    0.25740    0.63360    1.000
    H48      H        0.56150    0.35500    0.63860    1.000
    C88      C        0.54815    0.31271    0.52286    1.000
    O63      O        0.56753    0.25818    0.47240    1.000
    O64      O        0.49580    0.37123    0.50144    1.000
    Ni9      Ni       0.00000    0.00000    0.50000    1.000
    Ni10     Ni       0.50000    0.00000    0.00000    1.000
    Ni11     Ni       0.00000    0.50000    0.00000    1.000
    Ni12     Ni       0.50000    0.50000    0.50000    1.000
