# CIF file generated by openbabel 3.1.0, see https://openbabel.org
data_I
_chemical_name_common 'image0'
_cell_length_a 24.8112
_cell_length_b 13.7461
_cell_length_c 13.6627
_cell_angle_alpha 90
_cell_angle_beta 99.153
_cell_angle_gamma 90
_space_group_name_H-M_alt 'P 1'
_space_group_name_Hall 'P 1'
loop_
    _symmetry_equiv_pos_as_xyz
    x,y,z
loop_
    _atom_site_label
    _atom_site_type_symbol
    _atom_site_fract_x
    _atom_site_fract_y
    _atom_site_fract_z
    _atom_site_occupancy
    Sm1      Sm       0.17023    0.21548    0.46104    1.000
    C1       C        0.07530    0.28048    0.53748    1.000
    C2       C        0.02402    0.31182    0.57474    1.000
    C3       C        0.98578    0.24360    0.59320    1.000
    H1       H        0.99320    0.17760    0.58860    1.000
    C4       C        0.93629    0.27370    0.61850    1.000
    H2       H        0.91070    0.22720    0.62980    1.000
    C5       C        0.92410    0.37206    0.62747    1.000
    C6       C        0.96322    0.43980    0.61070    1.000
    H3       H        0.95640    0.50600    0.61570    1.000
    C7       C        0.01269    0.40800    0.58620    1.000
    H4       H        0.03900    0.45390    0.57740    1.000
    C8       C        0.86936    0.39993    0.65019    1.000
    C9       C        0.84619    0.34657    0.71914    1.000
    H5       H        0.86680    0.29820    0.75500    1.000
    C10      C        0.79335    0.36301    0.73630    1.000
    C11      C        0.76188    0.43346    0.67997    1.000
    H6       H        0.72540    0.44210    0.68640    1.000
    C12      C        0.78562    0.49103    0.61371    1.000
    C13      C        0.83886    0.47529    0.60036    1.000
    H7       H        0.85460    0.51530    0.55780    1.000
    C14      C        0.77129    0.30712    0.81685    1.000
    C15      C        0.75078    0.56970    0.55873    1.000
    O1       O        0.10696    0.34308    0.51399    1.000
    O2       O        0.08439    0.18995    0.52822    1.000
    O3       O        0.77273    0.64462    0.53041    1.000
    O4       O        0.69963    0.55892    0.54345    1.000
    O5       O        0.72306    0.32743    0.83011    1.000
    O6       O        0.80191    0.24671    0.86404    1.000
    Sm2      Sm       0.67023    0.71548    0.46104    1.000
    C16      C        0.57530    0.78048    0.53748    1.000
    C17      C        0.52402    0.81182    0.57474    1.000
    C18      C        0.48578    0.74360    0.59320    1.000
    H8       H        0.49320    0.67760    0.58860    1.000
    C19      C        0.43629    0.77370    0.61850    1.000
    H9       H        0.41070    0.72720    0.62980    1.000
    C20      C        0.42410    0.87206    0.62747    1.000
    C21      C        0.46322    0.93980    0.61070    1.000
    H10      H        0.45640    0.00600    0.61570    1.000
    C22      C        0.51269    0.90800    0.58620    1.000
    H11      H        0.53900    0.95390    0.57740    1.000
    C23      C        0.36936    0.89993    0.65019    1.000
    C24      C        0.34619    0.84657    0.71914    1.000
    H12      H        0.36680    0.79820    0.75500    1.000
    C25      C        0.29335    0.86301    0.73630    1.000
    C26      C        0.26188    0.93346    0.67997    1.000
    H13      H        0.22540    0.94210    0.68640    1.000
    C27      C        0.28562    0.99103    0.61371    1.000
    C28      C        0.33886    0.97529    0.60036    1.000
    H14      H        0.35460    0.01530    0.55780    1.000
    C29      C        0.27129    0.80712    0.81685    1.000
    C30      C        0.25078    0.06970    0.55873    1.000
    O7       O        0.60696    0.84308    0.51399    1.000
    O8       O        0.58439    0.68995    0.52822    1.000
    O9       O        0.27273    0.14462    0.53041    1.000
    O10      O        0.19963    0.05892    0.54345    1.000
    O11      O        0.22306    0.82743    0.83011    1.000
    O12      O        0.30191    0.74671    0.86404    1.000
    Sm3      Sm       0.82977    0.21548    0.03896    1.000
    C31      C        0.92470    0.28048    0.96252    1.000
    C32      C        0.97598    0.31182    0.92526    1.000
    C33      C        0.01422    0.24360    0.90680    1.000
    H15      H        0.00680    0.17760    0.91140    1.000
    C34      C        0.06371    0.27370    0.88150    1.000
    H16      H        0.08930    0.22720    0.87020    1.000
    C35      C        0.07590    0.37206    0.87253    1.000
    C36      C        0.03678    0.43980    0.88930    1.000
    H17      H        0.04360    0.50600    0.88430    1.000
    C37      C        0.98731    0.40800    0.91380    1.000
    H18      H        0.96100    0.45390    0.92260    1.000
    C38      C        0.13064    0.39993    0.84981    1.000
    C39      C        0.15381    0.34657    0.78086    1.000
    H19      H        0.13320    0.29820    0.74500    1.000
    C40      C        0.20665    0.36301    0.76370    1.000
    C41      C        0.23812    0.43346    0.82003    1.000
    H20      H        0.27460    0.44210    0.81360    1.000
    C42      C        0.21438    0.49103    0.88629    1.000
    C43      C        0.16114    0.47529    0.89964    1.000
    H21      H        0.14540    0.51530    0.94220    1.000
    C44      C        0.22871    0.30712    0.68315    1.000
    C45      C        0.24922    0.56970    0.94127    1.000
    O13      O        0.89304    0.34308    0.98601    1.000
    O14      O        0.91561    0.18995    0.97178    1.000
    O15      O        0.22727    0.64462    0.96959    1.000
    O16      O        0.30037    0.55892    0.95655    1.000
    O17      O        0.27694    0.32743    0.66989    1.000
    O18      O        0.19809    0.24671    0.63596    1.000
    Sm4      Sm       0.32977    0.71548    0.03896    1.000
    C46      C        0.42470    0.78048    0.96252    1.000
    C47      C        0.47598    0.81182    0.92526    1.000
    C48      C        0.51422    0.74360    0.90680    1.000
    H22      H        0.50680    0.67760    0.91140    1.000
    C49      C        0.56371    0.77370    0.88150    1.000
    H23      H        0.58930    0.72720    0.87020    1.000
    C50      C        0.57590    0.87206    0.87253    1.000
    C51      C        0.53678    0.93980    0.88930    1.000
    H24      H        0.54360    0.00600    0.88430    1.000
    C52      C        0.48731    0.90800    0.91380    1.000
    H25      H        0.46100    0.95390    0.92260    1.000
    C53      C        0.63064    0.89993    0.84981    1.000
    C54      C        0.65381    0.84657    0.78086    1.000
    H26      H        0.63320    0.79820    0.74500    1.000
    C55      C        0.70665    0.86301    0.76370    1.000
    C56      C        0.73812    0.93346    0.82003    1.000
    H27      H        0.77460    0.94210    0.81360    1.000
    C57      C        0.71438    0.99103    0.88629    1.000
    C58      C        0.66114    0.97529    0.89964    1.000
    H28      H        0.64540    0.01530    0.94220    1.000
    C59      C        0.72871    0.80712    0.68315    1.000
    C60      C        0.74922    0.06970    0.94127    1.000
    O19      O        0.39304    0.84308    0.98601    1.000
    O20      O        0.41561    0.68995    0.97178    1.000
    O21      O        0.72727    0.14462    0.96959    1.000
    O22      O        0.80037    0.05892    0.95655    1.000
    O23      O        0.77694    0.82743    0.66989    1.000
    O24      O        0.69809    0.74671    0.63596    1.000
    Sm5      Sm       0.82977    0.78452    0.53896    1.000
    C61      C        0.92470    0.71952    0.46252    1.000
    C62      C        0.97598    0.68818    0.42526    1.000
    C63      C        0.01422    0.75640    0.40680    1.000
    H29      H        0.00680    0.82240    0.41140    1.000
    C64      C        0.06371    0.72630    0.38150    1.000
    H30      H        0.08930    0.77280    0.37020    1.000
    C65      C        0.07590    0.62794    0.37253    1.000
    C66      C        0.03678    0.56020    0.38930    1.000
    H31      H        0.04360    0.49400    0.38430    1.000
    C67      C        0.98731    0.59200    0.41380    1.000
    H32      H        0.96100    0.54610    0.42260    1.000
    C68      C        0.13064    0.60007    0.34981    1.000
    C69      C        0.15381    0.65343    0.28086    1.000
    H33      H        0.13320    0.70180    0.24500    1.000
    C70      C        0.20665    0.63699    0.26370    1.000
    C71      C        0.23812    0.56654    0.32003    1.000
    H34      H        0.27460    0.55790    0.31360    1.000
    C72      C        0.21438    0.50897    0.38629    1.000
    C73      C        0.16114    0.52471    0.39964    1.000
    H35      H        0.14540    0.48470    0.44220    1.000
    C74      C        0.22871    0.69288    0.18315    1.000
    C75      C        0.24922    0.43030    0.44127    1.000
    O25      O        0.89304    0.65692    0.48601    1.000
    O26      O        0.91561    0.81005    0.47178    1.000
    O27      O        0.22727    0.35538    0.46959    1.000
    O28      O        0.30037    0.44108    0.45655    1.000
    O29      O        0.27694    0.67257    0.16989    1.000
    O30      O        0.19809    0.75329    0.13596    1.000
    Sm6      Sm       0.32977    0.28452    0.53896    1.000
    C76      C        0.42470    0.21952    0.46252    1.000
    C77      C        0.47598    0.18818    0.42526    1.000
    C78      C        0.51422    0.25640    0.40680    1.000
    H36      H        0.50680    0.32240    0.41140    1.000
    C79      C        0.56371    0.22630    0.38150    1.000
    H37      H        0.58930    0.27280    0.37020    1.000
    C80      C        0.57590    0.12794    0.37253    1.000
    C81      C        0.53678    0.06020    0.38930    1.000
    H38      H        0.54360    0.99400    0.38430    1.000
    C82      C        0.48731    0.09200    0.41380    1.000
    H39      H        0.46100    0.04610    0.42260    1.000
    C83      C        0.63064    0.10007    0.34981    1.000
    C84      C        0.65381    0.15343    0.28086    1.000
    H40      H        0.63320    0.20180    0.24500    1.000
    C85      C        0.70665    0.13699    0.26370    1.000
    C86      C        0.73812    0.06654    0.32003    1.000
    H41      H        0.77460    0.05790    0.31360    1.000
    C87      C        0.71438    0.00897    0.38629    1.000
    C88      C        0.66114    0.02471    0.39964    1.000
    H42      H        0.64540    0.98470    0.44220    1.000
    C89      C        0.72871    0.19288    0.18315    1.000
    C90      C        0.74922    0.93030    0.44127    1.000
    O31      O        0.39304    0.15692    0.48601    1.000
    O32      O        0.41561    0.31005    0.47178    1.000
    O33      O        0.72727    0.85538    0.46959    1.000
    O34      O        0.80037    0.94108    0.45655    1.000
    O35      O        0.77694    0.17257    0.16989    1.000
    O36      O        0.69809    0.25329    0.13596    1.000
    Sm7      Sm       0.17023    0.78452    0.96104    1.000
    C91      C        0.07530    0.71952    0.03748    1.000
    C92      C        0.02402    0.68818    0.07474    1.000
    C93      C        0.98578    0.75640    0.09320    1.000
    H43      H        0.99320    0.82240    0.08860    1.000
    C94      C        0.93629    0.72630    0.11850    1.000
    H44      H        0.91070    0.77280    0.12980    1.000
    C95      C        0.92410    0.62794    0.12747    1.000
    C96      C        0.96322    0.56020    0.11070    1.000
    H45      H        0.95640    0.49400    0.11570    1.000
    C97      C        0.01269    0.59200    0.08620    1.000
    H46      H        0.03900    0.54610    0.07740    1.000
    C98      C        0.86936    0.60007    0.15019    1.000
    C99      C        0.84619    0.65343    0.21914    1.000
    H47      H        0.86680    0.70180    0.25500    1.000
    C100     C        0.79335    0.63699    0.23630    1.000
    C101     C        0.76188    0.56654    0.17997    1.000
    H48      H        0.72540    0.55790    0.18640    1.000
    C102     C        0.78562    0.50897    0.11371    1.000
    C103     C        0.83886    0.52471    0.10036    1.000
    H49      H        0.85460    0.48470    0.05780    1.000
    C104     C        0.77129    0.69288    0.31685    1.000
    C105     C        0.75078    0.43030    0.05873    1.000
    O37      O        0.10696    0.65692    0.01399    1.000
    O38      O        0.08439    0.81005    0.02822    1.000
    O39      O        0.77273    0.35538    0.03041    1.000
    O40      O        0.69963    0.44108    0.04345    1.000
    O41      O        0.72306    0.67257    0.33011    1.000
    O42      O        0.80191    0.75329    0.36404    1.000
    Sm8      Sm       0.67023    0.28452    0.96104    1.000
    C106     C        0.57530    0.21952    0.03748    1.000
    C107     C        0.52402    0.18818    0.07474    1.000
    C108     C        0.48578    0.25640    0.09320    1.000
    H50      H        0.49320    0.32240    0.08860    1.000
    C109     C        0.43629    0.22630    0.11850    1.000
    H51      H        0.41070    0.27280    0.12980    1.000
    C110     C        0.42410    0.12794    0.12747    1.000
    C111     C        0.46322    0.06020    0.11070    1.000
    H52      H        0.45640    0.99400    0.11570    1.000
    C112     C        0.51269    0.09200    0.08620    1.000
    H53      H        0.53900    0.04610    0.07740    1.000
    C113     C        0.36936    0.10007    0.15019    1.000
    C114     C        0.34619    0.15343    0.21914    1.000
    H54      H        0.36680    0.20180    0.25500    1.000
    C115     C        0.29335    0.13699    0.23630    1.000
    C116     C        0.26188    0.06654    0.17997    1.000
    H55      H        0.22540    0.05790    0.18640    1.000
    C117     C        0.28562    0.00897    0.11371    1.000
    C118     C        0.33886    0.02471    0.10036    1.000
    H56      H        0.35460    0.98470    0.05780    1.000
    C119     C        0.27129    0.19288    0.31685    1.000
    C120     C        0.25078    0.93030    0.05873    1.000
    O43      O        0.60696    0.15692    0.01399    1.000
    O44      O        0.58439    0.31005    0.02822    1.000
    O45      O        0.27273    0.85538    0.03041    1.000
    O46      O        0.19963    0.94108    0.04345    1.000
    O47      O        0.22306    0.17257    0.33011    1.000
    O48      O        0.30191    0.25329    0.36404    1.000
