# CIF file generated by openbabel 3.1.0, see https://openbabel.org
data_I
_chemical_name_common 'WEHRIL_charged'
_cell_length_a 15.1185
_cell_length_b 15.1185
_cell_length_c 19.734
_cell_angle_alpha 107.507
_cell_angle_beta 107.507
_cell_angle_gamma 100.533
_space_group_name_H-M_alt 'P 1'
_space_group_name_Hall 'P 1'
loop_
    _symmetry_equiv_pos_as_xyz
    x,y,z
loop_
    _atom_site_label
    _atom_site_type_symbol
    _atom_site_fract_x
    _atom_site_fract_y
    _atom_site_fract_z
    _atom_site_occupancy
    Ag1      Ag       0.56706    0.32684    0.64743    1.000
    Ag2      Ag       0.67316    0.43294    0.85257    1.000
    Ag3      Ag       0.43294    0.67316    0.35257    1.000
    Ag4      Ag       0.32684    0.56706    0.14743    1.000
    H1       H        0.88570    0.53370    0.93020    1.000
    H2       H        0.00390    0.63330    0.04980    1.000
    H3       H        0.08650    0.79150    0.06990    1.000
    H4       H        0.93550    0.74330    0.85010    1.000
    H5       H        0.23150    0.10430    0.10680    1.000
    H6       H        0.30320    0.26240    0.12590    1.000
    H7       H        0.15460    0.20560    0.90410    1.000
    H8       H        0.08070    0.04990    0.88780    1.000
    H9       H        0.59110    0.45090    0.55970    1.000
    H10      H        0.57060    0.44420    0.43830    1.000
    H11      H        0.69950    0.49790    0.40690    1.000
    H12      H        0.87670    0.57250    0.62650    1.000
    H13      H        0.13710    0.67850    0.58840    1.000
    H14      H        0.27710    0.74270    0.57390    1.000
    H15      H        0.12880    0.67660    0.35100    1.000
    H16      H        0.98420    0.61540    0.36480    1.000
    H17      H        0.46630    0.11430    0.56980    1.000
    H18      H        0.36670    0.99610    0.45020    1.000
    H19      H        0.20850    0.91350    0.43010    1.000
    H20      H        0.25670    0.06450    0.64990    1.000
    H21      H        0.89570    0.76850    0.39320    1.000
    H22      H        0.73760    0.69680    0.37410    1.000
    H23      H        0.79440    0.84540    0.59590    1.000
    H24      H        0.95010    0.91930    0.61220    1.000
    H25      H        0.54910    0.40890    0.94030    1.000
    H26      H        0.55580    0.42940    0.06170    1.000
    H27      H        0.50210    0.30050    0.09310    1.000
    H28      H        0.42750    0.12330    0.87350    1.000
    H29      H        0.32150    0.86290    0.91160    1.000
    H30      H        0.25730    0.72290    0.92610    1.000
    H31      H        0.32340    0.87120    0.14900    1.000
    H32      H        0.38460    0.01580    0.13520    1.000
    H33      H        0.11430    0.46630    0.06980    1.000
    H34      H        0.99610    0.36670    0.95020    1.000
    H35      H        0.91350    0.20850    0.93010    1.000
    H36      H        0.06450    0.25670    0.14990    1.000
    H37      H        0.76850    0.89570    0.89320    1.000
    H38      H        0.69680    0.73760    0.87410    1.000
    H39      H        0.84540    0.79440    0.09590    1.000
    H40      H        0.91930    0.95010    0.11220    1.000
    H41      H        0.40890    0.54910    0.44030    1.000
    H42      H        0.42940    0.55580    0.56170    1.000
    H43      H        0.30050    0.50210    0.59310    1.000
    H44      H        0.12330    0.42750    0.37350    1.000
    H45      H        0.86290    0.32150    0.41160    1.000
    H46      H        0.72290    0.25730    0.42610    1.000
    H47      H        0.87120    0.32340    0.64900    1.000
    H48      H        0.01580    0.38460    0.63520    1.000
    H49      H        0.53370    0.88570    0.43020    1.000
    H50      H        0.63330    0.00390    0.54980    1.000
    H51      H        0.79150    0.08650    0.56990    1.000
    H52      H        0.74330    0.93550    0.35010    1.000
    H53      H        0.10430    0.23150    0.60680    1.000
    H54      H        0.26240    0.30320    0.62590    1.000
    H55      H        0.20560    0.15460    0.40410    1.000
    H56      H        0.04990    0.08070    0.38780    1.000
    H57      H        0.45090    0.59110    0.05970    1.000
    H58      H        0.44420    0.57060    0.93830    1.000
    H59      H        0.49790    0.69950    0.90690    1.000
    H60      H        0.57250    0.87670    0.12650    1.000
    H61      H        0.67850    0.13710    0.08840    1.000
    H62      H        0.74270    0.27710    0.07390    1.000
    H63      H        0.67660    0.12880    0.85100    1.000
    H64      H        0.61540    0.98420    0.86480    1.000
    C1       C        0.82570    0.56410    0.80230    1.000
    C2       C        0.90140    0.62920    0.88000    1.000
    C3       C        0.92000    0.59620    0.93850    1.000
    C4       C        0.98970    0.65590    0.01010    1.000
    C5       C        0.03900    0.75100    0.02210    1.000
    C6       C        0.01680    0.78460    0.96310    1.000
    C7       C        0.94890    0.72230    0.89080    1.000
    C8       C        0.06620    0.88000    0.97540    1.000
    C9       C        0.10310    0.95990    0.98330    1.000
    C10      C        0.14950    0.06070    0.99490    1.000
    C11      C        0.21600    0.12500    0.06610    1.000
    C12      C        0.25920    0.21880    0.07760    1.000
    C13      C        0.23630    0.24790    0.01600    1.000
    C14      C        0.27720    0.34880    0.02940    1.000
    C15      C        0.17000    0.18540    0.94510    1.000
    C16      C        0.12670    0.09250    0.93560    1.000
    C17      C        0.75200    0.51420    0.68230    1.000
    C18      C        0.73810    0.51130    0.60550    1.000
    C19      C        0.64450    0.47330    0.54860    1.000
    C20      C        0.63300    0.46980    0.47610    1.000
    C21      C        0.70930    0.50230    0.45680    1.000
    C22      C        0.80250    0.54210    0.51460    1.000
    C23      C        0.81470    0.54570    0.58810    1.000
    C24      C        0.88660    0.57520    0.49890    1.000
    C25      C        0.95520    0.60360    0.48880    1.000
    C26      C        0.04390    0.64070    0.47760    1.000
    C27      C        0.13460    0.67860    0.54070    1.000
    C28      C        0.21840    0.71540    0.53180    1.000
    C29      C        0.21590    0.71190    0.46080    1.000
    C30      C        0.30490    0.74290    0.45080    1.000
    C31      C        0.12970    0.67650    0.39840    1.000
    C32      C        0.04290    0.64010    0.40690    1.000
    C33      C        0.43590    0.17430    0.69770    1.000
    C34      C        0.37080    0.09860    0.62000    1.000
    C35      C        0.40380    0.08000    0.56150    1.000
    C36      C        0.34410    0.01030    0.48990    1.000
    C37      C        0.24900    0.96100    0.47790    1.000
    C38      C        0.21540    0.98320    0.53690    1.000
    C39      C        0.27770    0.05110    0.60920    1.000
    C40      C        0.12000    0.93380    0.52460    1.000
    C41      C        0.04010    0.89690    0.51670    1.000
    C42      C        0.93930    0.85050    0.50510    1.000
    C43      C        0.87500    0.78400    0.43390    1.000
    C44      C        0.78120    0.74080    0.42240    1.000
    C45      C        0.75210    0.76370    0.48400    1.000
    C46      C        0.65120    0.72280    0.47060    1.000
    C47      C        0.81460    0.83000    0.55490    1.000
    C48      C        0.90750    0.87330    0.56440    1.000
    C49      C        0.48580    0.24800    0.81770    1.000
    C50      C        0.48870    0.26190    0.89450    1.000
    C51      C        0.52670    0.35550    0.95140    1.000
    C52      C        0.53020    0.36700    0.02390    1.000
    C53      C        0.49770    0.29070    0.04320    1.000
    C54      C        0.45790    0.19750    0.98540    1.000
    C55      C        0.45430    0.18530    0.91190    1.000
    C56      C        0.42480    0.11340    0.00110    1.000
    C57      C        0.39640    0.04480    0.01120    1.000
    C58      C        0.35930    0.95610    0.02240    1.000
    C59      C        0.32140    0.86540    0.95930    1.000
    C60      C        0.28460    0.78160    0.96820    1.000
    C61      C        0.28810    0.78410    0.03920    1.000
    C62      C        0.25710    0.69510    0.04920    1.000
    C63      C        0.32350    0.87030    0.10160    1.000
    C64      C        0.35990    0.95710    0.09310    1.000
    C65      C        0.17430    0.43590    0.19770    1.000
    C66      C        0.09860    0.37080    0.12000    1.000
    C67      C        0.08000    0.40380    0.06150    1.000
    C68      C        0.01030    0.34410    0.98990    1.000
    C69      C        0.96100    0.24900    0.97790    1.000
    C70      C        0.98320    0.21540    0.03690    1.000
    C71      C        0.05110    0.27770    0.10920    1.000
    C72      C        0.93380    0.12000    0.02460    1.000
    C73      C        0.89690    0.04010    0.01670    1.000
    C74      C        0.85050    0.93930    0.00510    1.000
    C75      C        0.78400    0.87500    0.93390    1.000
    C76      C        0.74080    0.78120    0.92240    1.000
    C77      C        0.76370    0.75210    0.98400    1.000
    C78      C        0.72280    0.65120    0.97060    1.000
    C79      C        0.83000    0.81460    0.05490    1.000
    C80      C        0.87330    0.90750    0.06440    1.000
    C81      C        0.24800    0.48580    0.31770    1.000
    C82      C        0.26190    0.48870    0.39450    1.000
    C83      C        0.35550    0.52670    0.45140    1.000
    C84      C        0.36700    0.53020    0.52390    1.000
    C85      C        0.29070    0.49770    0.54320    1.000
    C86      C        0.19750    0.45790    0.48540    1.000
    C87      C        0.18530    0.45430    0.41190    1.000
    C88      C        0.11340    0.42480    0.50110    1.000
    C89      C        0.04480    0.39640    0.51120    1.000
    C90      C        0.95610    0.35930    0.52240    1.000
    C91      C        0.86540    0.32140    0.45930    1.000
    C92      C        0.78160    0.28460    0.46820    1.000
    C93      C        0.78410    0.28810    0.53920    1.000
    C94      C        0.69510    0.25710    0.54920    1.000
    C95      C        0.87030    0.32350    0.60160    1.000
    C96      C        0.95710    0.35990    0.59310    1.000
    C97      C        0.56410    0.82570    0.30230    1.000
    C98      C        0.62920    0.90140    0.38000    1.000
    C99      C        0.59620    0.92000    0.43850    1.000
    C100     C        0.65590    0.98970    0.51010    1.000
    C101     C        0.75100    0.03900    0.52210    1.000
    C102     C        0.78460    0.01680    0.46310    1.000
    C103     C        0.72230    0.94890    0.39080    1.000
    C104     C        0.88000    0.06620    0.47540    1.000
    C105     C        0.95990    0.10310    0.48330    1.000
    C106     C        0.06070    0.14950    0.49490    1.000
    C107     C        0.12500    0.21600    0.56610    1.000
    C108     C        0.21880    0.25920    0.57760    1.000
    C109     C        0.24790    0.23630    0.51600    1.000
    C110     C        0.34880    0.27720    0.52940    1.000
    C111     C        0.18540    0.17000    0.44510    1.000
    C112     C        0.09250    0.12670    0.43560    1.000
    C113     C        0.51420    0.75200    0.18230    1.000
    C114     C        0.51130    0.73810    0.10550    1.000
    C115     C        0.47330    0.64450    0.04860    1.000
    C116     C        0.46980    0.63300    0.97610    1.000
    C117     C        0.50230    0.70930    0.95680    1.000
    C118     C        0.54210    0.80250    0.01460    1.000
    C119     C        0.54570    0.81470    0.08810    1.000
    C120     C        0.57520    0.88660    0.99890    1.000
    C121     C        0.60360    0.95520    0.98880    1.000
    C122     C        0.64070    0.04390    0.97760    1.000
    C123     C        0.67860    0.13460    0.04070    1.000
    C124     C        0.71540    0.21840    0.03180    1.000
    C125     C        0.71190    0.21590    0.96080    1.000
    C126     C        0.74290    0.30490    0.95080    1.000
    C127     C        0.67650    0.12970    0.89840    1.000
    C128     C        0.64010    0.04290    0.90690    1.000
    N1       N        0.69990    0.46330    0.70510    1.000
    N2       N        0.74970    0.49830    0.78620    1.000
    N3       N        0.30950    0.42790    0.03960    1.000
    N4       N        0.37430    0.76710    0.44380    1.000
    N5       N        0.53670    0.30010    0.79490    1.000
    N6       N        0.50170    0.25030    0.71380    1.000
    N7       N        0.57210    0.69050    0.46040    1.000
    N8       N        0.23290    0.62570    0.05620    1.000
    N9       N        0.30010    0.53670    0.29490    1.000
    N10      N        0.25030    0.50170    0.21380    1.000
    N11      N        0.69050    0.57210    0.96040    1.000
    N12      N        0.62570    0.23290    0.55620    1.000
    N13      N        0.46330    0.69990    0.20510    1.000
    N14      N        0.49830    0.74970    0.28620    1.000
    N15      N        0.42790    0.30950    0.53960    1.000
    N16      N        0.76710    0.37430    0.94380    1.000
    O1       O        0.83360    0.58080    0.74080    1.000
    O2       O        0.41920    0.16640    0.75920    1.000
    O3       O        0.16640    0.41920    0.25920    1.000
    O4       O        0.58080    0.83360    0.24080    1.000
    Cl1      Cl       0.52580    0.47420    0.25000    1.000
    O5       O        0.61810    0.47890    0.25900    1.000
    O6       O        0.52150    0.52730    0.31450    1.000
    O7       O        0.52110    0.38190    0.24100    1.000
    O8       O        0.47270    0.47850    0.18550    1.000
    Cl2      Cl       0.47420    0.52580    0.75000    1.000
    O9       O        0.38190    0.52110    0.74100    1.000
    O10      O        0.47850    0.47270    0.68550    1.000
    O11      O        0.47890    0.61810    0.75900    1.000
    O12      O        0.52730    0.52150    0.81450    1.000
    Cl3      Cl       0.77580    0.22420    0.75000    1.000
    O13      O        0.82390    0.20710    0.81180    1.000
    O14      O        0.68150    0.19550    0.74140    1.000
    O15      O        0.79290    0.17610    0.68820    1.000
    O16      O        0.80450    0.31850    0.75860    1.000
    Cl4      Cl       0.22420    0.77580    0.25000    1.000
    O17      O        0.17610    0.79290    0.18820    1.000
    O18      O        0.31850    0.80450    0.25860    1.000
    O19      O        0.20710    0.82390    0.31180    1.000
    O20      O        0.19550    0.68150    0.24140    1.000
