# CIF file generated by openbabel 3.1.0, see https://openbabel.org
data_I
_chemical_name_common 'image0'
_cell_length_a 30.418
_cell_length_b 16.302
_cell_length_c 21.78
_cell_angle_alpha 90
_cell_angle_beta 133.83
_cell_angle_gamma 90
_space_group_name_H-M_alt 'P 1'
_space_group_name_Hall 'P 1'
loop_
    _symmetry_equiv_pos_as_xyz
    x,y,z
loop_
    _atom_site_label
    _atom_site_type_symbol
    _atom_site_fract_x
    _atom_site_fract_y
    _atom_site_fract_z
    _atom_site_occupancy
    C1       C        0.31110    0.93280    0.88240    1.000
    C2       C        0.28190    0.86170    0.87030    1.000
    H1       H        0.27240    0.82200    0.83190    1.000
    C3       C        0.26730    0.85120    0.91750    1.000
    H2       H        0.24850    0.80310    0.91230    1.000
    C4       C        0.28080    0.91300    0.97300    1.000
    H3       H        0.26900    0.90870    0.00240    1.000
    C5       C        0.31220    0.98040    0.98240    1.000
    C6       C        0.33020    0.95450    0.83710    1.000
    C7       C        0.33630    0.05050    0.04530    1.000
    C8       C        0.06850    0.24200    0.63070    1.000
    C9       C        0.04750    0.17680    0.57450    1.000
    H4       H        0.00750    0.17380    0.52200    1.000
    C10      C        0.09080    0.11590    0.60210    1.000
    H5       H        0.07970    0.07270    0.56580    1.000
    C11      C        0.14960    0.11880    0.68210    1.000
    H6       H        0.17700    0.07620    0.70150    1.000
    C12      C        0.16640    0.18670    0.73230    1.000
    C13      C        0.02970    0.31500    0.60630    1.000
    C14      C        0.23230    0.20110    0.81860    1.000
    N1       N        0.32610    0.99210    0.93620    1.000
    N2       N        0.12660    0.24600    0.70800    1.000
    O1       O        0.04870    0.37250    0.65940    1.000
    O2       O        0.44220    0.87800    0.85870    1.000
    O3       O        0.23960    0.26690    0.85380    1.000
    O4       O        0.36070    0.10820    0.04390    1.000
    O5       O        0.35740    0.02010    0.85350    1.000
    O6       O        0.27180    0.14950    0.84310    1.000
    O7       O        0.97370    0.30970    0.54480    1.000
    O8       O        0.32490    0.04610    0.09060    1.000
    O9       O        0.31690    0.90240    0.78220    1.000
    O10      O        0.17140    0.27680    0.89490    1.000
    O11      O        0.37100    0.21600    0.14600    1.000
    Eu1      Eu       0.37898    0.11961    0.95473    1.000
    Eu2      Eu       0.15985    0.37126    0.80110    1.000
    C15      C        0.81110    0.43280    0.88240    1.000
    C16      C        0.78190    0.36170    0.87030    1.000
    H7       H        0.77240    0.32200    0.83190    1.000
    C17      C        0.76730    0.35120    0.91750    1.000
    H8       H        0.74850    0.30310    0.91230    1.000
    C18      C        0.78080    0.41300    0.97300    1.000
    H9       H        0.76900    0.40870    0.00240    1.000
    C19      C        0.81220    0.48040    0.98240    1.000
    C20      C        0.83020    0.45450    0.83710    1.000
    C21      C        0.83630    0.55050    0.04530    1.000
    C22      C        0.56850    0.74200    0.63070    1.000
    C23      C        0.54750    0.67680    0.57450    1.000
    H10      H        0.50750    0.67380    0.52200    1.000
    C24      C        0.59080    0.61590    0.60210    1.000
    H11      H        0.57970    0.57270    0.56580    1.000
    C25      C        0.64960    0.61880    0.68210    1.000
    H12      H        0.67700    0.57620    0.70150    1.000
    C26      C        0.66640    0.68670    0.73230    1.000
    C27      C        0.52970    0.81500    0.60630    1.000
    C28      C        0.73230    0.70110    0.81860    1.000
    N3       N        0.82610    0.49210    0.93620    1.000
    N4       N        0.62660    0.74600    0.70800    1.000
    O12      O        0.54870    0.87250    0.65940    1.000
    O13      O        0.94220    0.37800    0.85870    1.000
    O14      O        0.73960    0.76690    0.85380    1.000
    O15      O        0.86070    0.60820    0.04390    1.000
    O16      O        0.85740    0.52010    0.85350    1.000
    O17      O        0.77180    0.64950    0.84310    1.000
    O18      O        0.47370    0.80970    0.54480    1.000
    O19      O        0.82490    0.54610    0.09060    1.000
    O20      O        0.81690    0.40240    0.78220    1.000
    O21      O        0.67140    0.77680    0.89490    1.000
    O22      O        0.87100    0.71600    0.14600    1.000
    Eu3      Eu       0.87898    0.61961    0.95473    1.000
    Eu4      Eu       0.65985    0.87126    0.80110    1.000
    C29      C        0.68890    0.93280    0.61760    1.000
    C30      C        0.71810    0.86170    0.62970    1.000
    H13      H        0.72760    0.82200    0.66810    1.000
    C31      C        0.73270    0.85120    0.58250    1.000
    H14      H        0.75150    0.80310    0.58770    1.000
    C32      C        0.71920    0.91300    0.52700    1.000
    H15      H        0.73100    0.90870    0.49760    1.000
    C33      C        0.68780    0.98040    0.51760    1.000
    C34      C        0.66980    0.95450    0.66290    1.000
    C35      C        0.66370    0.05050    0.45470    1.000
    C36      C        0.93150    0.24200    0.86930    1.000
    C37      C        0.95250    0.17680    0.92550    1.000
    H16      H        0.99250    0.17380    0.97800    1.000
    C38      C        0.90920    0.11590    0.89790    1.000
    H17      H        0.92030    0.07270    0.93420    1.000
    C39      C        0.85040    0.11880    0.81790    1.000
    H18      H        0.82300    0.07620    0.79850    1.000
    C40      C        0.83360    0.18670    0.76770    1.000
    C41      C        0.97030    0.31500    0.89370    1.000
    C42      C        0.76770    0.20110    0.68140    1.000
    N5       N        0.67390    0.99210    0.56380    1.000
    N6       N        0.87340    0.24600    0.79200    1.000
    O23      O        0.95130    0.37250    0.84060    1.000
    O24      O        0.55780    0.87800    0.64130    1.000
    O25      O        0.76040    0.26690    0.64620    1.000
    O26      O        0.63930    0.10820    0.45610    1.000
    O27      O        0.64260    0.02010    0.64650    1.000
    O28      O        0.72820    0.14950    0.65690    1.000
    O29      O        0.02630    0.30970    0.95520    1.000
    O30      O        0.67510    0.04610    0.40940    1.000
    O31      O        0.68310    0.90240    0.71780    1.000
    O32      O        0.82860    0.27680    0.60510    1.000
    O33      O        0.62900    0.21600    0.35400    1.000
    Eu5      Eu       0.62102    0.11961    0.54527    1.000
    Eu6      Eu       0.84015    0.37126    0.69890    1.000
    C43      C        0.18890    0.43280    0.61760    1.000
    C44      C        0.21810    0.36170    0.62970    1.000
    H19      H        0.22760    0.32200    0.66810    1.000
    C45      C        0.23270    0.35120    0.58250    1.000
    H20      H        0.25150    0.30310    0.58770    1.000
    C46      C        0.21920    0.41300    0.52700    1.000
    H21      H        0.23100    0.40870    0.49760    1.000
    C47      C        0.18780    0.48040    0.51760    1.000
    C48      C        0.16980    0.45450    0.66290    1.000
    C49      C        0.16370    0.55050    0.45470    1.000
    C50      C        0.43150    0.74200    0.86930    1.000
    C51      C        0.45250    0.67680    0.92550    1.000
    H22      H        0.49250    0.67380    0.97800    1.000
    C52      C        0.40920    0.61590    0.89790    1.000
    H23      H        0.42030    0.57270    0.93420    1.000
    C53      C        0.35040    0.61880    0.81790    1.000
    H24      H        0.32300    0.57620    0.79850    1.000
    C54      C        0.33360    0.68670    0.76770    1.000
    C55      C        0.47030    0.81500    0.89370    1.000
    C56      C        0.26770    0.70110    0.68140    1.000
    N7       N        0.17390    0.49210    0.56380    1.000
    N8       N        0.37340    0.74600    0.79200    1.000
    O34      O        0.45130    0.87250    0.84060    1.000
    O35      O        0.05780    0.37800    0.64130    1.000
    O36      O        0.26040    0.76690    0.64620    1.000
    O37      O        0.13930    0.60820    0.45610    1.000
    O38      O        0.14260    0.52010    0.64650    1.000
    O39      O        0.22820    0.64950    0.65690    1.000
    O40      O        0.52630    0.80970    0.95520    1.000
    O41      O        0.17510    0.54610    0.40940    1.000
    O42      O        0.18310    0.40240    0.71780    1.000
    O43      O        0.32860    0.77680    0.60510    1.000
    O44      O        0.12900    0.71600    0.35400    1.000
    Eu7      Eu       0.12102    0.61961    0.54527    1.000
    Eu8      Eu       0.34015    0.87126    0.69890    1.000
    C57      C        0.68890    0.06720    0.11760    1.000
    C58      C        0.71810    0.13830    0.12970    1.000
    H25      H        0.72760    0.17800    0.16810    1.000
    C59      C        0.73270    0.14880    0.08250    1.000
    H26      H        0.75150    0.19690    0.08770    1.000
    C60      C        0.71920    0.08700    0.02700    1.000
    H27      H        0.73100    0.09130    0.99760    1.000
    C61      C        0.68780    0.01960    0.01760    1.000
    C62      C        0.66980    0.04550    0.16290    1.000
    C63      C        0.66370    0.94950    0.95470    1.000
    C64      C        0.93150    0.75800    0.36930    1.000
    C65      C        0.95250    0.82320    0.42550    1.000
    H28      H        0.99250    0.82620    0.47800    1.000
    C66      C        0.90920    0.88410    0.39790    1.000
    H29      H        0.92030    0.92730    0.43420    1.000
    C67      C        0.85040    0.88120    0.31790    1.000
    H30      H        0.82300    0.92380    0.29850    1.000
    C68      C        0.83360    0.81330    0.26770    1.000
    C69      C        0.97030    0.68500    0.39370    1.000
    C70      C        0.76770    0.79890    0.18140    1.000
    N9       N        0.67390    0.00790    0.06380    1.000
    N10      N        0.87340    0.75400    0.29200    1.000
    O45      O        0.95130    0.62750    0.34060    1.000
    O46      O        0.55780    0.12200    0.14130    1.000
    O47      O        0.76040    0.73310    0.14620    1.000
    O48      O        0.63930    0.89180    0.95610    1.000
    O49      O        0.64260    0.97990    0.14650    1.000
    O50      O        0.72820    0.85050    0.15690    1.000
    O51      O        0.02630    0.69030    0.45520    1.000
    O52      O        0.67510    0.95390    0.90940    1.000
    O53      O        0.68310    0.09760    0.21780    1.000
    O54      O        0.82860    0.72320    0.10510    1.000
    O55      O        0.62900    0.78400    0.85400    1.000
    Eu9      Eu       0.62102    0.88039    0.04527    1.000
    Eu10     Eu       0.84015    0.62874    0.19890    1.000
    C71      C        0.18890    0.56720    0.11760    1.000
    C72      C        0.21810    0.63830    0.12970    1.000
    H31      H        0.22760    0.67800    0.16810    1.000
    C73      C        0.23270    0.64880    0.08250    1.000
    H32      H        0.25150    0.69690    0.08770    1.000
    C74      C        0.21920    0.58700    0.02700    1.000
    H33      H        0.23100    0.59130    0.99760    1.000
    C75      C        0.18780    0.51960    0.01760    1.000
    C76      C        0.16980    0.54550    0.16290    1.000
    C77      C        0.16370    0.44950    0.95470    1.000
    C78      C        0.43150    0.25800    0.36930    1.000
    C79      C        0.45250    0.32320    0.42550    1.000
    H34      H        0.49250    0.32620    0.47800    1.000
    C80      C        0.40920    0.38410    0.39790    1.000
    H35      H        0.42030    0.42730    0.43420    1.000
    C81      C        0.35040    0.38120    0.31790    1.000
    H36      H        0.32300    0.42380    0.29850    1.000
    C82      C        0.33360    0.31330    0.26770    1.000
    C83      C        0.47030    0.18500    0.39370    1.000
    C84      C        0.26770    0.29890    0.18140    1.000
    N11      N        0.17390    0.50790    0.06380    1.000
    N12      N        0.37340    0.25400    0.29200    1.000
    O56      O        0.45130    0.12750    0.34060    1.000
    O57      O        0.05780    0.62200    0.14130    1.000
    O58      O        0.26040    0.23310    0.14620    1.000
    O59      O        0.13930    0.39180    0.95610    1.000
    O60      O        0.14260    0.47990    0.14650    1.000
    O61      O        0.22820    0.35050    0.15690    1.000
    O62      O        0.52630    0.19030    0.45520    1.000
    O63      O        0.17510    0.45390    0.90940    1.000
    O64      O        0.18310    0.59760    0.21780    1.000
    O65      O        0.32860    0.22320    0.10510    1.000
    O66      O        0.12900    0.28400    0.85400    1.000
    Eu11     Eu       0.12102    0.38039    0.04527    1.000
    Eu12     Eu       0.34015    0.12874    0.19890    1.000
    C85      C        0.31110    0.06720    0.38240    1.000
    C86      C        0.28190    0.13830    0.37030    1.000
    H37      H        0.27240    0.17800    0.33190    1.000
    C87      C        0.26730    0.14880    0.41750    1.000
    H38      H        0.24850    0.19690    0.41230    1.000
    C88      C        0.28080    0.08700    0.47300    1.000
    H39      H        0.26900    0.09130    0.50240    1.000
    C89      C        0.31220    0.01960    0.48240    1.000
    C90      C        0.33020    0.04550    0.33710    1.000
    C91      C        0.33630    0.94950    0.54530    1.000
    C92      C        0.06850    0.75800    0.13070    1.000
    C93      C        0.04750    0.82320    0.07450    1.000
    H40      H        0.00750    0.82620    0.02200    1.000
    C94      C        0.09080    0.88410    0.10210    1.000
    H41      H        0.07970    0.92730    0.06580    1.000
    C95      C        0.14960    0.88120    0.18210    1.000
    H42      H        0.17700    0.92380    0.20150    1.000
    C96      C        0.16640    0.81330    0.23230    1.000
    C97      C        0.02970    0.68500    0.10630    1.000
    C98      C        0.23230    0.79890    0.31860    1.000
    N13      N        0.32610    0.00790    0.43620    1.000
    N14      N        0.12660    0.75400    0.20800    1.000
    O67      O        0.04870    0.62750    0.15940    1.000
    O68      O        0.44220    0.12200    0.35870    1.000
    O69      O        0.23960    0.73310    0.35380    1.000
    O70      O        0.36070    0.89180    0.54390    1.000
    O71      O        0.35740    0.97990    0.35350    1.000
    O72      O        0.27180    0.85050    0.34310    1.000
    O73      O        0.97370    0.69030    0.04480    1.000
    O74      O        0.32490    0.95390    0.59060    1.000
    O75      O        0.31690    0.09760    0.28220    1.000
    O76      O        0.17140    0.72320    0.39490    1.000
    O77      O        0.37100    0.78400    0.64600    1.000
    Eu13     Eu       0.37898    0.88039    0.45473    1.000
    Eu14     Eu       0.15985    0.62874    0.30110    1.000
    C99      C        0.81110    0.56720    0.38240    1.000
    C100     C        0.78190    0.63830    0.37030    1.000
    H43      H        0.77240    0.67800    0.33190    1.000
    C101     C        0.76730    0.64880    0.41750    1.000
    H44      H        0.74850    0.69690    0.41230    1.000
    C102     C        0.78080    0.58700    0.47300    1.000
    H45      H        0.76900    0.59130    0.50240    1.000
    C103     C        0.81220    0.51960    0.48240    1.000
    C104     C        0.83020    0.54550    0.33710    1.000
    C105     C        0.83630    0.44950    0.54530    1.000
    C106     C        0.56850    0.25800    0.13070    1.000
    C107     C        0.54750    0.32320    0.07450    1.000
    H46      H        0.50750    0.32620    0.02200    1.000
    C108     C        0.59080    0.38410    0.10210    1.000
    H47      H        0.57970    0.42730    0.06580    1.000
    C109     C        0.64960    0.38120    0.18210    1.000
    H48      H        0.67700    0.42380    0.20150    1.000
    C110     C        0.66640    0.31330    0.23230    1.000
    C111     C        0.52970    0.18500    0.10630    1.000
    C112     C        0.73230    0.29890    0.31860    1.000
    N15      N        0.82610    0.50790    0.43620    1.000
    N16      N        0.62660    0.25400    0.20800    1.000
    O78      O        0.54870    0.12750    0.15940    1.000
    O79      O        0.94220    0.62200    0.35870    1.000
    O80      O        0.73960    0.23310    0.35380    1.000
    O81      O        0.86070    0.39180    0.54390    1.000
    O82      O        0.85740    0.47990    0.35350    1.000
    O83      O        0.77180    0.35050    0.34310    1.000
    O84      O        0.47370    0.19030    0.04480    1.000
    O85      O        0.82490    0.45390    0.59060    1.000
    O86      O        0.81690    0.59760    0.28220    1.000
    O87      O        0.67140    0.22320    0.39490    1.000
    O88      O        0.87100    0.28400    0.64600    1.000
    Eu15     Eu       0.87898    0.38039    0.45473    1.000
    Eu16     Eu       0.65985    0.12874    0.30110    1.000
