# CIF file generated by openbabel 3.1.0, see https://openbabel.org
data_I
_chemical_name_common 'image0'
_cell_length_a 24.1267
_cell_length_b 24.1267
_cell_length_c 11.3077
_cell_angle_alpha 90
_cell_angle_beta 90
_cell_angle_gamma 90
_space_group_name_H-M_alt 'P 1'
_space_group_name_Hall 'P 1'
loop_
    _symmetry_equiv_pos_as_xyz
    x,y,z
loop_
    _atom_site_label
    _atom_site_type_symbol
    _atom_site_fract_x
    _atom_site_fract_y
    _atom_site_fract_z
    _atom_site_occupancy
    Cu1      Cu       0.46246    0.50850    0.10150    1.000
    Cu2      Cu       0.59865    0.54413    0.14732    1.000
    O1       O        0.55293    0.56115    0.28400    1.000
    O2       O        0.46950    0.52079    0.26780    1.000
    O3       O        0.48147    0.88395    0.87690    1.000
    O4       O        0.53538    0.84798    0.01740    1.000
    O5       O        0.33321    0.52630    0.57890    1.000
    O6       O        0.36639    0.54173    0.77660    1.000
    O7       O        0.33050    0.61720    0.66600    1.000
    O8       O        0.46971    0.60707    0.04140    1.000
    O9       O        0.56161    0.64842    0.06420    1.000
    O10      O        0.54199    0.59180    0.89500    1.000
    O11      O        0.54234    0.49747    0.07290    1.000
    H1       H        0.54610    0.46720    0.10480    1.000
    O12      O        0.44732    0.62987    0.77380    1.000
    S1       S        0.35846    0.56456    0.66016    1.000
    S2       S        0.51978    0.62974    0.98420    1.000
    C1       C        0.49113    0.56937    0.44390    1.000
    C2       C        0.44013    0.55782    0.49230    1.000
    H2       H        0.41530    0.53560    0.45090    1.000
    C3       C        0.42530    0.57869    0.60160    1.000
    C4       C        0.46270    0.61095    0.66150    1.000
    C5       C        0.51340    0.62120    0.61650    1.000
    H3       H        0.53860    0.64220    0.65990    1.000
    C6       C        0.52850    0.60100    0.50640    1.000
    H4       H        0.56340    0.60870    0.47520    1.000
    C7       C        0.46580    0.68249    0.80590    1.000
    C8       C        0.49618    0.68848    0.90670    1.000
    C9       C        0.50922    0.74128    0.94650    1.000
    H5       H        0.52940    0.74560    0.01600    1.000
    C10      C        0.49230    0.78792    0.88340    1.000
    C11      C        0.46270    0.78017    0.78020    1.000
    H6       H        0.45140    0.81080    0.73640    1.000
    C12      C        0.44980    0.72790    0.74150    1.000
    H7       H        0.43010    0.72330    0.67150    1.000
    C13      C        0.50639    0.54816    0.32190    1.000
    C14      C        0.50408    0.84490    0.93030    1.000
    Cu3      Cu       0.03754    0.99150    0.10150    1.000
    Cu4      Cu       0.90135    0.95587    0.14732    1.000
    O13      O        0.94707    0.93885    0.28400    1.000
    O14      O        0.03050    0.97921    0.26780    1.000
    O15      O        0.01853    0.61605    0.87690    1.000
    O16      O        0.96462    0.65202    0.01740    1.000
    O17      O        0.16679    0.97370    0.57890    1.000
    O18      O        0.13361    0.95827    0.77660    1.000
    O19      O        0.16950    0.88280    0.66600    1.000
    O20      O        0.03029    0.89293    0.04140    1.000
    O21      O        0.93839    0.85158    0.06420    1.000
    O22      O        0.95801    0.90820    0.89500    1.000
    O23      O        0.95766    0.00253    0.07290    1.000
    H8       H        0.95390    0.03280    0.10480    1.000
    O24      O        0.05268    0.87013    0.77380    1.000
    S3       S        0.14154    0.93544    0.66016    1.000
    S4       S        0.98022    0.87026    0.98420    1.000
    C15      C        0.00887    0.93063    0.44390    1.000
    C16      C        0.05987    0.94218    0.49230    1.000
    H9       H        0.08470    0.96440    0.45090    1.000
    C17      C        0.07470    0.92131    0.60160    1.000
    C18      C        0.03730    0.88905    0.66150    1.000
    C19      C        0.98660    0.87880    0.61650    1.000
    H10      H        0.96140    0.85780    0.65990    1.000
    C20      C        0.97150    0.89900    0.50640    1.000
    H11      H        0.93660    0.89130    0.47520    1.000
    C21      C        0.03420    0.81751    0.80590    1.000
    C22      C        0.00382    0.81152    0.90670    1.000
    C23      C        0.99078    0.75872    0.94650    1.000
    H12      H        0.97060    0.75440    0.01600    1.000
    C24      C        0.00770    0.71208    0.88340    1.000
    C25      C        0.03730    0.71983    0.78020    1.000
    H13      H        0.04860    0.68920    0.73640    1.000
    C26      C        0.05020    0.77210    0.74150    1.000
    H14      H        0.06990    0.77670    0.67150    1.000
    C27      C        0.99361    0.95184    0.32190    1.000
    C28      C        0.99592    0.65510    0.93030    1.000
    Cu5      Cu       0.99150    0.46246    0.10150    1.000
    Cu6      Cu       0.95587    0.59865    0.14732    1.000
    O25      O        0.93885    0.55293    0.28400    1.000
    O26      O        0.97921    0.46950    0.26780    1.000
    O27      O        0.61605    0.48147    0.87690    1.000
    O28      O        0.65202    0.53538    0.01740    1.000
    O29      O        0.97370    0.33321    0.57890    1.000
    O30      O        0.95827    0.36639    0.77660    1.000
    O31      O        0.88280    0.33050    0.66600    1.000
    O32      O        0.89293    0.46971    0.04140    1.000
    O33      O        0.85158    0.56161    0.06420    1.000
    O34      O        0.90820    0.54199    0.89500    1.000
    O35      O        0.00253    0.54234    0.07290    1.000
    H15      H        0.03280    0.54610    0.10480    1.000
    O36      O        0.87013    0.44732    0.77380    1.000
    S5       S        0.93544    0.35846    0.66016    1.000
    S6       S        0.87026    0.51978    0.98420    1.000
    C29      C        0.93063    0.49113    0.44390    1.000
    C30      C        0.94218    0.44013    0.49230    1.000
    H16      H        0.96440    0.41530    0.45090    1.000
    C31      C        0.92131    0.42530    0.60160    1.000
    C32      C        0.88905    0.46270    0.66150    1.000
    C33      C        0.87880    0.51340    0.61650    1.000
    H17      H        0.85780    0.53860    0.65990    1.000
    C34      C        0.89900    0.52850    0.50640    1.000
    H18      H        0.89130    0.56340    0.47520    1.000
    C35      C        0.81751    0.46580    0.80590    1.000
    C36      C        0.81152    0.49618    0.90670    1.000
    C37      C        0.75872    0.50922    0.94650    1.000
    H19      H        0.75440    0.52940    0.01600    1.000
    C38      C        0.71208    0.49230    0.88340    1.000
    C39      C        0.71983    0.46270    0.78020    1.000
    H20      H        0.68920    0.45140    0.73640    1.000
    C40      C        0.77210    0.44980    0.74150    1.000
    H21      H        0.77670    0.43010    0.67150    1.000
    C41      C        0.95184    0.50639    0.32190    1.000
    C42      C        0.65510    0.50408    0.93030    1.000
    Cu7      Cu       0.50850    0.03754    0.10150    1.000
    Cu8      Cu       0.54413    0.90135    0.14732    1.000
    O37      O        0.56115    0.94707    0.28400    1.000
    O38      O        0.52079    0.03050    0.26780    1.000
    O39      O        0.88395    0.01853    0.87690    1.000
    O40      O        0.84798    0.96462    0.01740    1.000
    O41      O        0.52630    0.16679    0.57890    1.000
    O42      O        0.54173    0.13361    0.77660    1.000
    O43      O        0.61720    0.16950    0.66600    1.000
    O44      O        0.60707    0.03029    0.04140    1.000
    O45      O        0.64842    0.93839    0.06420    1.000
    O46      O        0.59180    0.95801    0.89500    1.000
    O47      O        0.49747    0.95766    0.07290    1.000
    H22      H        0.46720    0.95390    0.10480    1.000
    O48      O        0.62987    0.05268    0.77380    1.000
    S7       S        0.56456    0.14154    0.66016    1.000
    S8       S        0.62974    0.98022    0.98420    1.000
    C43      C        0.56937    0.00887    0.44390    1.000
    C44      C        0.55782    0.05987    0.49230    1.000
    H23      H        0.53560    0.08470    0.45090    1.000
    C45      C        0.57869    0.07470    0.60160    1.000
    C46      C        0.61095    0.03730    0.66150    1.000
    C47      C        0.62120    0.98660    0.61650    1.000
    H24      H        0.64220    0.96140    0.65990    1.000
    C48      C        0.60100    0.97150    0.50640    1.000
    H25      H        0.60870    0.93660    0.47520    1.000
    C49      C        0.68249    0.03420    0.80590    1.000
    C50      C        0.68848    0.00382    0.90670    1.000
    C51      C        0.74128    0.99078    0.94650    1.000
    H26      H        0.74560    0.97060    0.01600    1.000
    C52      C        0.78792    0.00770    0.88340    1.000
    C53      C        0.78017    0.03730    0.78020    1.000
    H27      H        0.81080    0.04860    0.73640    1.000
    C54      C        0.72790    0.05020    0.74150    1.000
    H28      H        0.72330    0.06990    0.67150    1.000
    C55      C        0.54816    0.99361    0.32190    1.000
    C56      C        0.84490    0.99592    0.93030    1.000
    Cu9      Cu       0.53754    0.49150    0.89850    1.000
    Cu10     Cu       0.40135    0.45587    0.85268    1.000
    O49      O        0.44707    0.43885    0.71600    1.000
    O50      O        0.53050    0.47921    0.73220    1.000
    O51      O        0.51853    0.11605    0.12310    1.000
    O52      O        0.46462    0.15202    0.98260    1.000
    O53      O        0.66679    0.47370    0.42110    1.000
    O54      O        0.63361    0.45827    0.22340    1.000
    O55      O        0.66950    0.38280    0.33400    1.000
    O56      O        0.53029    0.39293    0.95860    1.000
    O57      O        0.43839    0.35158    0.93580    1.000
    O58      O        0.45801    0.40820    0.10500    1.000
    O59      O        0.45766    0.50253    0.92710    1.000
    H29      H        0.45390    0.53280    0.89520    1.000
    O60      O        0.55268    0.37013    0.22620    1.000
    S9       S        0.64154    0.43544    0.33984    1.000
    S10      S        0.48022    0.37026    0.01580    1.000
    C57      C        0.50887    0.43063    0.55610    1.000
    C58      C        0.55987    0.44218    0.50770    1.000
    H30      H        0.58470    0.46440    0.54910    1.000
    C59      C        0.57470    0.42131    0.39840    1.000
    C60      C        0.53730    0.38905    0.33850    1.000
    C61      C        0.48660    0.37880    0.38350    1.000
    H31      H        0.46140    0.35780    0.34010    1.000
    C62      C        0.47150    0.39900    0.49360    1.000
    H32      H        0.43660    0.39130    0.52480    1.000
    C63      C        0.53420    0.31751    0.19410    1.000
    C64      C        0.50382    0.31152    0.09330    1.000
    C65      C        0.49078    0.25872    0.05350    1.000
    H33      H        0.47060    0.25440    0.98400    1.000
    C66      C        0.50770    0.21208    0.11660    1.000
    C67      C        0.53730    0.21983    0.21980    1.000
    H34      H        0.54860    0.18920    0.26360    1.000
    C68      C        0.55020    0.27210    0.25850    1.000
    H35      H        0.56990    0.27670    0.32850    1.000
    C69      C        0.49361    0.45184    0.67810    1.000
    C70      C        0.49592    0.15510    0.06970    1.000
    Cu11     Cu       0.96246    0.00850    0.89850    1.000
    Cu12     Cu       0.09865    0.04413    0.85268    1.000
    O61      O        0.05293    0.06115    0.71600    1.000
    O62      O        0.96950    0.02079    0.73220    1.000
    O63      O        0.98147    0.38395    0.12310    1.000
    O64      O        0.03538    0.34798    0.98260    1.000
    O65      O        0.83321    0.02630    0.42110    1.000
    O66      O        0.86639    0.04173    0.22340    1.000
    O67      O        0.83050    0.11720    0.33400    1.000
    O68      O        0.96971    0.10707    0.95860    1.000
    O69      O        0.06161    0.14842    0.93580    1.000
    O70      O        0.04199    0.09180    0.10500    1.000
    O71      O        0.04234    0.99747    0.92710    1.000
    H36      H        0.04610    0.96720    0.89520    1.000
    O72      O        0.94732    0.12987    0.22620    1.000
    S11      S        0.85846    0.06456    0.33984    1.000
    S12      S        0.01978    0.12974    0.01580    1.000
    C71      C        0.99113    0.06937    0.55610    1.000
    C72      C        0.94013    0.05782    0.50770    1.000
    H37      H        0.91530    0.03560    0.54910    1.000
    C73      C        0.92530    0.07869    0.39840    1.000
    C74      C        0.96270    0.11095    0.33850    1.000
    C75      C        0.01340    0.12120    0.38350    1.000
    H38      H        0.03860    0.14220    0.34010    1.000
    C76      C        0.02850    0.10100    0.49360    1.000
    H39      H        0.06340    0.10870    0.52480    1.000
    C77      C        0.96580    0.18249    0.19410    1.000
    C78      C        0.99618    0.18848    0.09330    1.000
    C79      C        0.00922    0.24128    0.05350    1.000
    H40      H        0.02940    0.24560    0.98400    1.000
    C80      C        0.99230    0.28792    0.11660    1.000
    C81      C        0.96270    0.28017    0.21980    1.000
    H41      H        0.95140    0.31080    0.26360    1.000
    C82      C        0.94980    0.22790    0.25850    1.000
    H42      H        0.93010    0.22330    0.32850    1.000
    C83      C        0.00639    0.04816    0.67810    1.000
    C84      C        0.00408    0.34490    0.06970    1.000
    Cu13     Cu       0.00850    0.53754    0.89850    1.000
    Cu14     Cu       0.04413    0.40135    0.85268    1.000
    O73      O        0.06115    0.44707    0.71600    1.000
    O74      O        0.02079    0.53050    0.73220    1.000
    O75      O        0.38395    0.51853    0.12310    1.000
    O76      O        0.34798    0.46462    0.98260    1.000
    O77      O        0.02630    0.66679    0.42110    1.000
    O78      O        0.04173    0.63361    0.22340    1.000
    O79      O        0.11720    0.66950    0.33400    1.000
    O80      O        0.10707    0.53029    0.95860    1.000
    O81      O        0.14842    0.43839    0.93580    1.000
    O82      O        0.09180    0.45801    0.10500    1.000
    O83      O        0.99747    0.45766    0.92710    1.000
    H43      H        0.96720    0.45390    0.89520    1.000
    O84      O        0.12987    0.55268    0.22620    1.000
    S13      S        0.06456    0.64154    0.33984    1.000
    S14      S        0.12974    0.48022    0.01580    1.000
    C85      C        0.06937    0.50887    0.55610    1.000
    C86      C        0.05782    0.55987    0.50770    1.000
    H44      H        0.03560    0.58470    0.54910    1.000
    C87      C        0.07869    0.57470    0.39840    1.000
    C88      C        0.11095    0.53730    0.33850    1.000
    C89      C        0.12120    0.48660    0.38350    1.000
    H45      H        0.14220    0.46140    0.34010    1.000
    C90      C        0.10100    0.47150    0.49360    1.000
    H46      H        0.10870    0.43660    0.52480    1.000
    C91      C        0.18249    0.53420    0.19410    1.000
    C92      C        0.18848    0.50382    0.09330    1.000
    C93      C        0.24128    0.49078    0.05350    1.000
    H47      H        0.24560    0.47060    0.98400    1.000
    C94      C        0.28792    0.50770    0.11660    1.000
    C95      C        0.28017    0.53730    0.21980    1.000
    H48      H        0.31080    0.54860    0.26360    1.000
    C96      C        0.22790    0.55020    0.25850    1.000
    H49      H        0.22330    0.56990    0.32850    1.000
    C97      C        0.04816    0.49361    0.67810    1.000
    C98      C        0.34490    0.49592    0.06970    1.000
    Cu15     Cu       0.49150    0.96246    0.89850    1.000
    Cu16     Cu       0.45587    0.09865    0.85268    1.000
    O85      O        0.43885    0.05293    0.71600    1.000
    O86      O        0.47921    0.96950    0.73220    1.000
    O87      O        0.11605    0.98147    0.12310    1.000
    O88      O        0.15202    0.03538    0.98260    1.000
    O89      O        0.47370    0.83321    0.42110    1.000
    O90      O        0.45827    0.86639    0.22340    1.000
    O91      O        0.38280    0.83050    0.33400    1.000
    O92      O        0.39293    0.96971    0.95860    1.000
    O93      O        0.35158    0.06161    0.93580    1.000
    O94      O        0.40820    0.04199    0.10500    1.000
    O95      O        0.50253    0.04234    0.92710    1.000
    H50      H        0.53280    0.04610    0.89520    1.000
    O96      O        0.37013    0.94732    0.22620    1.000
    S15      S        0.43544    0.85846    0.33984    1.000
    S16      S        0.37026    0.01978    0.01580    1.000
    C99      C        0.43063    0.99113    0.55610    1.000
    C100     C        0.44218    0.94013    0.50770    1.000
    H51      H        0.46440    0.91530    0.54910    1.000
    C101     C        0.42131    0.92530    0.39840    1.000
    C102     C        0.38905    0.96270    0.33850    1.000
    C103     C        0.37880    0.01340    0.38350    1.000
    H52      H        0.35780    0.03860    0.34010    1.000
    C104     C        0.39900    0.02850    0.49360    1.000
    H53      H        0.39130    0.06340    0.52480    1.000
    C105     C        0.31751    0.96580    0.19410    1.000
    C106     C        0.31152    0.99618    0.09330    1.000
    C107     C        0.25872    0.00922    0.05350    1.000
    H54      H        0.25440    0.02940    0.98400    1.000
    C108     C        0.21208    0.99230    0.11660    1.000
    C109     C        0.21983    0.96270    0.21980    1.000
    H55      H        0.18920    0.95140    0.26360    1.000
    C110     C        0.27210    0.94980    0.25850    1.000
    H56      H        0.27670    0.93010    0.32850    1.000
    C111     C        0.45184    0.00639    0.67810    1.000
    C112     C        0.15510    0.00408    0.06970    1.000
