# CIF file generated by openbabel 3.1.0, see https://openbabel.org
data_I
_chemical_name_common 'image0'
_cell_length_a 10.9068
_cell_length_b 15.858
_cell_length_c 16.1047
_cell_angle_alpha 89.575
_cell_angle_beta 89.485
_cell_angle_gamma 85.889
_space_group_name_H-M_alt 'P 1'
_space_group_name_Hall 'P 1'
loop_
    _symmetry_equiv_pos_as_xyz
    x,y,z
loop_
    _atom_site_label
    _atom_site_type_symbol
    _atom_site_fract_x
    _atom_site_fract_y
    _atom_site_fract_z
    _atom_site_occupancy
    Fe1      Fe       0.97426    0.27905    0.74711    1.000
    N1       N        0.01300    0.20030    0.63840    1.000
    N2       N        0.98890    0.02760    0.52540    1.000
    N3       N        0.93830    0.35730    0.85510    1.000
    N4       N        0.96600    0.48730    0.02770    1.000
    N5       N        0.95210    0.16800    0.82060    1.000
    N6       N        0.99990    0.03340    0.98020    1.000
    N7       N        0.00190    0.38820    0.67390    1.000
    N8       N        0.04220    0.52310    0.50770    1.000
    N9       N        0.16690    0.27000    0.77810    1.000
    N10      N        0.49040    0.26420    0.78860    1.000
    N11      N        0.78080    0.28270    0.71880    1.000
    N12      N        0.45990    0.26260    0.71460    1.000
    C1       C        0.03970    0.15650    0.58510    1.000
    C2       C        0.06860    0.10040    0.51280    1.000
    C3       C        0.20540    0.07000    0.51190    1.000
    H1       H        0.22740    0.04340    0.56610    1.000
    H2       H        0.22080    0.02680    0.46830    1.000
    C4       C        0.28540    0.14260    0.49550    1.000
    H3       H        0.37260    0.12070    0.49250    1.000
    H4       H        0.27640    0.18300    0.54220    1.000
    C5       C        0.25030    0.18860    0.41440    1.000
    H5       H        0.30150    0.23720    0.40680    1.000
    H6       H        0.26700    0.14970    0.36720    1.000
    C6       C        0.11570    0.21990    0.41460    1.000
    H7       H        0.09450    0.24540    0.35990    1.000
    H8       H        0.10150    0.26440    0.45720    1.000
    C7       C        0.03190    0.14860    0.43290    1.000
    H9       H        0.03610    0.10880    0.38570    1.000
    H10      H        0.94590    0.17260    0.43830    1.000
    C8       C        0.92150    0.38580    0.91870    1.000
    C9       C        0.89840    0.41320    0.00590    1.000
    C10      C        0.94160    0.33950    0.06250    1.000
    H11      H        0.93960    0.35900    0.12080    1.000
    H12      H        0.02780    0.32090    0.04830    1.000
    C11      C        0.86140    0.26360    0.05500    1.000
    H13      H        0.87140    0.23910    0.99880    1.000
    H14      H        0.88840    0.21940    0.09590    1.000
    C12      C        0.72780    0.29170    0.07030    1.000
    H15      H        0.67740    0.24280    0.06350    1.000
    H16      H        0.71740    0.31150    0.12830    1.000
    C13      C        0.68210    0.36160    0.01210    1.000
    H17      H        0.59520    0.37900    0.02550    1.000
    H18      H        0.68600    0.34060    0.95430    1.000
    C14      C        0.76010    0.43810    0.01930    1.000
    H19      H        0.74740    0.46340    0.07500    1.000
    H20      H        0.73250    0.48130    0.97750    1.000
    C15      C        0.94230    0.10710    0.85770    1.000
    C16      C        0.91790    0.03010    0.90610    1.000
    C17      C        0.94370    0.95030    0.85300    1.000
    H21      H        0.02980    0.94780    0.83270    1.000
    H22      H        0.93360    0.89960    0.88790    1.000
    C18      C        0.85790    0.94960    0.77930    1.000
    H23      H        0.87410    0.89620    0.74840    1.000
    H24      H        0.87350    0.99710    0.74140    1.000
    C19      C        0.72450    0.95760    0.80830    1.000
    H25      H        0.67040    0.96000    0.75920    1.000
    H26      H        0.70710    0.90680    0.84120    1.000
    C20      C        0.69570    0.03520    0.86020    1.000
    H27      H        0.60980    0.03550    0.88080    1.000
    H28      H        0.70250    0.08620    0.82510    1.000
    C21      C        0.78190    0.03890    0.93410    1.000
    H29      H        0.76610    0.99290    0.97380    1.000
    H30      H        0.76520    0.09350    0.96310    1.000
    C22      C        0.03580    0.44330    0.63750    1.000
    C23      C        0.09330    0.51210    0.59160    1.000
    C24      C        0.23390    0.48960    0.58320    1.000
    H31      H        0.24790    0.43240    0.55920    1.000
    H32      H        0.26970    0.53010    0.54450    1.000
    C25      C        0.29840    0.49170    0.66570    1.000
    H33      H        0.38810    0.48120    0.65680    1.000
    H34      H        0.27060    0.44610    0.70210    1.000
    C26      C        0.27180    0.57710    0.70850    1.000
    H35      H        0.31090    0.57540    0.76380    1.000
    H36      H        0.30790    0.62200    0.67510    1.000
    C27      C        0.13340    0.59810    0.71860    1.000
    H37      H        0.09910    0.55650    0.75690    1.000
    H38      H        0.11880    0.65480    0.74350    1.000
    C28      C        0.06780    0.59660    0.63590    1.000
    H39      H        0.09510    0.64270    0.59990    1.000
    H40      H        0.97820    0.60700    0.64530    1.000
    C29      C        0.26420    0.26440    0.80480    1.000
    C30      C        0.38490    0.25920    0.84730    1.000
    C31      C        0.40770    0.17460    0.89350    1.000
    H41      H        0.39790    0.12780    0.85430    1.000
    H42      H        0.49330    0.16940    0.91370    1.000
    C32      C        0.32010    0.16600    0.96690    1.000
    H43      H        0.34280    0.11270    0.99710    1.000
    H44      H        0.23530    0.16330    0.94620    1.000
    C33      C        0.32370    0.24080    0.02710    1.000
    H45      H        0.26190    0.23540    0.07190    1.000
    H46      H        0.40580    0.24020    0.05290    1.000
    C34      C        0.29640    0.32390    0.98010    1.000
    H47      H        0.21170    0.32590    0.95830    1.000
    H48      H        0.30120    0.37160    0.01890    1.000
    C35      C        0.38630    0.33400    0.90830    1.000
    H49      H        0.47030    0.33710    0.93030    1.000
    H50      H        0.36380    0.38760    0.87830    1.000
    C36      C        0.68250    0.27440    0.69470    1.000
    C37      C        0.56390    0.25980    0.65440    1.000
    C38      C        0.53550    0.32780    0.58860    1.000
    H51      H        0.54100    0.38420    0.61360    1.000
    H52      H        0.45030    0.32410    0.56900    1.000
    C39      C        0.62460    0.31850    0.51410    1.000
    H53      H        0.59890    0.36060    0.47080    1.000
    H54      H        0.70840    0.32980    0.53200    1.000
    C40      C        0.62630    0.22900    0.47760    1.000
    H55      H        0.54400    0.21950    0.45550    1.000
    H56      H        0.68620    0.22390    0.43100    1.000
    C41      C        0.66100    0.16260    0.54300    1.000
    H57      H        0.74610    0.16920    0.56150    1.000
    H58      H        0.65860    0.10570    0.51840    1.000
    C42      C        0.57400    0.17000    0.61750    1.000
    H59      H        0.60370    0.12910    0.66090    1.000
    H60      H        0.49140    0.15510    0.60040    1.000
    Fe2      Fe       0.02574    0.72095    0.25289    1.000
    N13      N        0.98700    0.79970    0.36160    1.000
    N14      N        0.01110    0.97240    0.47460    1.000
    N15      N        0.06170    0.64270    0.14490    1.000
    N16      N        0.03400    0.51270    0.97230    1.000
    N17      N        0.04790    0.83200    0.17940    1.000
    N18      N        0.00010    0.96660    0.01980    1.000
    N19      N        0.99810    0.61180    0.32610    1.000
    N20      N        0.95780    0.47690    0.49230    1.000
    N21      N        0.83310    0.73000    0.22190    1.000
    N22      N        0.50960    0.73580    0.21140    1.000
    N23      N        0.21920    0.71730    0.28120    1.000
    N24      N        0.54010    0.73740    0.28540    1.000
    C43      C        0.96030    0.84350    0.41490    1.000
    C44      C        0.93140    0.89960    0.48720    1.000
    C45      C        0.79460    0.93000    0.48810    1.000
    H61      H        0.77260    0.95660    0.43390    1.000
    H62      H        0.77920    0.97320    0.53170    1.000
    C46      C        0.71460    0.85740    0.50450    1.000
    H63      H        0.62740    0.87930    0.50750    1.000
    H64      H        0.72360    0.81700    0.45780    1.000
    C47      C        0.74970    0.81140    0.58560    1.000
    H65      H        0.69850    0.76280    0.59320    1.000
    H66      H        0.73300    0.85030    0.63280    1.000
    C48      C        0.88430    0.78010    0.58540    1.000
    H67      H        0.90550    0.75460    0.64010    1.000
    H68      H        0.89850    0.73560    0.54280    1.000
    C49      C        0.96810    0.85140    0.56710    1.000
    H69      H        0.96390    0.89120    0.61430    1.000
    H70      H        0.05410    0.82740    0.56170    1.000
    C50      C        0.07850    0.61420    0.08130    1.000
    C51      C        0.10160    0.58680    0.99410    1.000
    C52      C        0.05840    0.66050    0.93750    1.000
    H71      H        0.06040    0.64100    0.87920    1.000
    H72      H        0.97220    0.67910    0.95170    1.000
    C53      C        0.13860    0.73640    0.94500    1.000
    H73      H        0.12860    0.76090    0.00120    1.000
    H74      H        0.11160    0.78060    0.90410    1.000
    C54      C        0.27220    0.70830    0.92970    1.000
    H75      H        0.32260    0.75720    0.93650    1.000
    H76      H        0.28260    0.68850    0.87170    1.000
    C55      C        0.31790    0.63840    0.98790    1.000
    H77      H        0.40480    0.62100    0.97450    1.000
    H78      H        0.31400    0.65940    0.04570    1.000
    C56      C        0.23990    0.56190    0.98070    1.000
    H79      H        0.25260    0.53660    0.92500    1.000
    H80      H        0.26750    0.51870    0.02250    1.000
    C57      C        0.05770    0.89290    0.14230    1.000
    C58      C        0.08210    0.96990    0.09390    1.000
    C59      C        0.05630    0.04970    0.14700    1.000
    H81      H        0.97020    0.05220    0.16730    1.000
    H82      H        0.06640    0.10040    0.11210    1.000
    C60      C        0.14210    0.05040    0.22070    1.000
    H83      H        0.12590    0.10380    0.25160    1.000
    H84      H        0.12650    0.00290    0.25860    1.000
    C61      C        0.27550    0.04240    0.19170    1.000
    H85      H        0.32960    0.04000    0.24080    1.000
    H86      H        0.29290    0.09320    0.15880    1.000
    C62      C        0.30430    0.96480    0.13980    1.000
    H87      H        0.39020    0.96450    0.11920    1.000
    H88      H        0.29750    0.91380    0.17490    1.000
    C63      C        0.21810    0.96110    0.06590    1.000
    H89      H        0.23390    0.00710    0.02620    1.000
    H90      H        0.23480    0.90650    0.03690    1.000
    C64      C        0.96420    0.55670    0.36250    1.000
    C65      C        0.90670    0.48790    0.40840    1.000
    C66      C        0.76610    0.51040    0.41680    1.000
    H91      H        0.75210    0.56760    0.44080    1.000
    H92      H        0.73030    0.46990    0.45550    1.000
    C67      C        0.70160    0.50830    0.33430    1.000
    H93      H        0.61190    0.51880    0.34320    1.000
    H94      H        0.72940    0.55390    0.29790    1.000
    C68      C        0.72820    0.42290    0.29150    1.000
    H95      H        0.68910    0.42460    0.23620    1.000
    H96      H        0.69210    0.37800    0.32490    1.000
    C69      C        0.86660    0.40190    0.28140    1.000
    H97      H        0.90090    0.44350    0.24310    1.000
    H98      H        0.88120    0.34520    0.25650    1.000
    C70      C        0.93220    0.40340    0.36410    1.000
    H99      H        0.90490    0.35730    0.40010    1.000
    H100     H        0.02180    0.39300    0.35470    1.000
    C71      C        0.73580    0.73560    0.19520    1.000
    C72      C        0.61510    0.74080    0.15270    1.000
    C73      C        0.59230    0.82540    0.10650    1.000
    H101     H        0.60210    0.87220    0.14570    1.000
    H102     H        0.50670    0.83060    0.08630    1.000
    C74      C        0.67990    0.83400    0.03310    1.000
    H103     H        0.65720    0.88730    0.00290    1.000
    H104     H        0.76470    0.83670    0.05380    1.000
    C75      C        0.67630    0.75920    0.97290    1.000
    H105     H        0.73810    0.76460    0.92810    1.000
    H106     H        0.59420    0.75980    0.94710    1.000
    C76      C        0.70360    0.67610    0.01990    1.000
    H107     H        0.78830    0.67410    0.04170    1.000
    H108     H        0.69880    0.62840    0.98110    1.000
    C77      C        0.61370    0.66600    0.09170    1.000
    H109     H        0.52970    0.66290    0.06970    1.000
    H110     H        0.63620    0.61240    0.12170    1.000
    C78      C        0.31750    0.72560    0.30530    1.000
    C79      C        0.43610    0.74020    0.34560    1.000
    C80      C        0.46450    0.67220    0.41140    1.000
    H111     H        0.45900    0.61580    0.38640    1.000
    H112     H        0.54970    0.67590    0.43100    1.000
    C81      C        0.37540    0.68150    0.48590    1.000
    H113     H        0.40110    0.63940    0.52920    1.000
    H114     H        0.29160    0.67020    0.46800    1.000
    C82      C        0.37370    0.77100    0.52240    1.000
    H115     H        0.45600    0.78050    0.54450    1.000
    H116     H        0.31380    0.77610    0.56900    1.000
    C83      C        0.33900    0.83740    0.45700    1.000
    H117     H        0.25390    0.83080    0.43850    1.000
    H118     H        0.34140    0.89430    0.48160    1.000
    C84      C        0.42600    0.83000    0.38250    1.000
    H119     H        0.39630    0.87090    0.33910    1.000
    H120     H        0.50860    0.84490    0.39960    1.000
