# CIF file generated by openbabel 3.1.0, see https://openbabel.org
data_I
_chemical_name_common 'image0'
_cell_length_a 18.667
_cell_length_b 18.667
_cell_length_c 36.398
_cell_angle_alpha 90
_cell_angle_beta 90
_cell_angle_gamma 120
_space_group_name_H-M_alt 'P 1'
_space_group_name_Hall 'P 1'
loop_
    _symmetry_equiv_pos_as_xyz
    x,y,z
loop_
    _atom_site_label
    _atom_site_type_symbol
    _atom_site_fract_x
    _atom_site_fract_y
    _atom_site_fract_z
    _atom_site_occupancy
    O1       O        0.48125    0.36993    0.00175    1.000
    O2       O        0.40910    0.43900    0.04819    1.000
    N1       N        0.54170    0.42090    0.07926    1.000
    C1       C        0.54350    0.34960    0.07889    1.000
    H1       H        0.54720    0.32740    0.05590    1.000
    C2       C        0.54000    0.30660    0.11123    1.000
    C3       C        0.53620    0.34100    0.14420    1.000
    H2       H        0.53590    0.31460    0.16650    1.000
    C4       C        0.53280    0.41300    0.14512    1.000
    C5       C        0.41600    0.45560    0.25438    1.000
    H3       H        0.37990    0.40370    0.24330    1.000
    C6       C        0.39180    0.47960    0.28660    1.000
    C7       C        0.44960    0.35810    0.97010    1.000
    O3       O        0.14792    0.70326    0.33508    1.000
    O4       O        0.07577    0.77233    0.38152    1.000
    N2       N        0.20837    0.75423    0.41259    1.000
    C8       C        0.21017    0.68293    0.41222    1.000
    H4       H        0.21387    0.66073    0.38923    1.000
    C9       C        0.20667    0.63993    0.44456    1.000
    C10      C        0.20287    0.67433    0.47753    1.000
    H5       H        0.20257    0.64793    0.49983    1.000
    C11      C        0.19947    0.74633    0.47845    1.000
    C12      C        0.08267    0.78893    0.58771    1.000
    H6       H        0.04657    0.73703    0.57663    1.000
    C13      C        0.05847    0.81293    0.61993    1.000
    C14      C        0.11627    0.69143    0.30343    1.000
    O5       O        0.81458    0.03660    0.66842    1.000
    O6       O        0.74243    0.10567    0.71486    1.000
    N3       N        0.87503    0.08757    0.74593    1.000
    C15      C        0.87683    0.01627    0.74556    1.000
    H7       H        0.88053    0.99407    0.72257    1.000
    C16      C        0.87333    0.97327    0.77790    1.000
    C17      C        0.86953    0.00767    0.81087    1.000
    H8       H        0.86923    0.98127    0.83317    1.000
    C18      C        0.86613    0.07967    0.81179    1.000
    C19      C        0.74933    0.12227    0.92105    1.000
    H9       H        0.71323    0.07037    0.90997    1.000
    C20      C        0.72513    0.14627    0.95327    1.000
    C21      C        0.78293    0.02477    0.63677    1.000
    O7       O        0.63007    0.11132    0.00175    1.000
    O8       O        0.56100    0.97010    0.04819    1.000
    N4       N        0.57910    0.12080    0.07926    1.000
    C22      C        0.65040    0.19390    0.07889    1.000
    H10      H        0.67260    0.21980    0.05590    1.000
    C23      C        0.69340    0.23340    0.11123    1.000
    C24      C        0.65900    0.19520    0.14420    1.000
    H11      H        0.68540    0.22130    0.16650    1.000
    C25      C        0.58700    0.11980    0.14512    1.000
    C26      C        0.54440    0.96040    0.25438    1.000
    H12      H        0.59630    0.97620    0.24330    1.000
    C27      C        0.52040    0.91220    0.28660    1.000
    C28      C        0.64190    0.09150    0.97010    1.000
    O9       O        0.29674    0.44465    0.33508    1.000
    O10      O        0.22767    0.30343    0.38152    1.000
    N5       N        0.24577    0.45413    0.41259    1.000
    C29      C        0.31707    0.52723    0.41222    1.000
    H13      H        0.33927    0.55313    0.38923    1.000
    C30      C        0.36007    0.56673    0.44456    1.000
    C31      C        0.32567    0.52853    0.47753    1.000
    H14      H        0.35207    0.55463    0.49983    1.000
    C32      C        0.25367    0.45313    0.47845    1.000
    C33      C        0.21107    0.29373    0.58771    1.000
    H15      H        0.26297    0.30953    0.57663    1.000
    C34      C        0.18707    0.24553    0.61993    1.000
    C35      C        0.30857    0.42483    0.30343    1.000
    O11      O        0.96340    0.77799    0.66842    1.000
    O12      O        0.89433    0.63677    0.71486    1.000
    N6       N        0.91243    0.78747    0.74593    1.000
    C36      C        0.98373    0.86057    0.74556    1.000
    H16      H        0.00593    0.88647    0.72257    1.000
    C37      C        0.02673    0.90007    0.77790    1.000
    C38      C        0.99233    0.86187    0.81087    1.000
    H17      H        0.01873    0.88797    0.83317    1.000
    C39      C        0.92033    0.78647    0.81179    1.000
    C40      C        0.87773    0.62707    0.92105    1.000
    H18      H        0.92963    0.64287    0.90997    1.000
    C41      C        0.85373    0.57887    0.95327    1.000
    C42      C        0.97523    0.75817    0.63677    1.000
    O13      O        0.88868    0.51875    0.00175    1.000
    O14      O        0.02990    0.59090    0.04819    1.000
    N7       N        0.87920    0.45830    0.07926    1.000
    C43      C        0.80610    0.45650    0.07889    1.000
    H19      H        0.78020    0.45280    0.05590    1.000
    C44      C        0.76660    0.46000    0.11123    1.000
    C45      C        0.80480    0.46380    0.14420    1.000
    H20      H        0.77870    0.46410    0.16650    1.000
    C46      C        0.88020    0.46720    0.14512    1.000
    C47      C        0.03960    0.58400    0.25438    1.000
    H21      H        0.02380    0.62010    0.24330    1.000
    C48      C        0.08780    0.60820    0.28660    1.000
    C49      C        0.90850    0.55040    0.97010    1.000
    O15      O        0.55535    0.85208    0.33508    1.000
    O16      O        0.69657    0.92423    0.38152    1.000
    N8       N        0.54587    0.79163    0.41259    1.000
    C50      C        0.47277    0.78983    0.41222    1.000
    H22      H        0.44687    0.78613    0.38923    1.000
    C51      C        0.43327    0.79333    0.44456    1.000
    C52      C        0.47147    0.79713    0.47753    1.000
    H23      H        0.44537    0.79743    0.49983    1.000
    C53      C        0.54687    0.80053    0.47845    1.000
    C54      C        0.70627    0.91733    0.58771    1.000
    H24      H        0.69047    0.95343    0.57663    1.000
    C55      C        0.75447    0.94153    0.61993    1.000
    C56      C        0.57517    0.88373    0.30343    1.000
    O17      O        0.22201    0.18542    0.66842    1.000
    O18      O        0.36323    0.25757    0.71486    1.000
    N9       N        0.21253    0.12497    0.74593    1.000
    C57      C        0.13943    0.12317    0.74556    1.000
    H25      H        0.11353    0.11947    0.72257    1.000
    C58      C        0.09993    0.12667    0.77790    1.000
    C59      C        0.13813    0.13047    0.81087    1.000
    H26      H        0.11203    0.13077    0.83317    1.000
    C60      C        0.21353    0.13387    0.81179    1.000
    C61      C        0.37293    0.25067    0.92105    1.000
    H27      H        0.35713    0.28677    0.90997    1.000
    C62      C        0.42113    0.27487    0.95327    1.000
    C63      C        0.24183    0.21707    0.63677    1.000
    O19      O        0.36993    0.48125    0.99825    1.000
    O20      O        0.43900    0.40910    0.95181    1.000
    N10      N        0.42090    0.54170    0.92074    1.000
    C64      C        0.34960    0.54350    0.92111    1.000
    H28      H        0.32740    0.54720    0.94410    1.000
    C65      C        0.30660    0.54000    0.88877    1.000
    C66      C        0.34100    0.53620    0.85580    1.000
    H29      H        0.31460    0.53590    0.83350    1.000
    C67      C        0.41300    0.53280    0.85488    1.000
    C68      C        0.45560    0.41600    0.74562    1.000
    H30      H        0.40370    0.37990    0.75670    1.000
    C69      C        0.47960    0.39180    0.71340    1.000
    C70      C        0.35810    0.44960    0.02990    1.000
    O21      O        0.03660    0.81458    0.33158    1.000
    O22      O        0.10567    0.74243    0.28514    1.000
    N11      N        0.08757    0.87503    0.25407    1.000
    C71      C        0.01627    0.87683    0.25444    1.000
    H31      H        0.99407    0.88053    0.27743    1.000
    C72      C        0.97327    0.87333    0.22210    1.000
    C73      C        0.00767    0.86953    0.18913    1.000
    H32      H        0.98127    0.86923    0.16683    1.000
    C74      C        0.07967    0.86613    0.18821    1.000
    C75      C        0.12227    0.74933    0.07895    1.000
    H33      H        0.07037    0.71323    0.09003    1.000
    C76      C        0.14627    0.72513    0.04673    1.000
    C77      C        0.02477    0.78293    0.36323    1.000
    O23      O        0.70326    0.14792    0.66492    1.000
    O24      O        0.77233    0.07577    0.61848    1.000
    N12      N        0.75423    0.20837    0.58741    1.000
    C78      C        0.68293    0.21017    0.58778    1.000
    H34      H        0.66073    0.21387    0.61077    1.000
    C79      C        0.63993    0.20667    0.55544    1.000
    C80      C        0.67433    0.20287    0.52247    1.000
    H35      H        0.64793    0.20257    0.50017    1.000
    C81      C        0.74633    0.19947    0.52155    1.000
    C82      C        0.78893    0.08267    0.41229    1.000
    H36      H        0.73703    0.04657    0.42337    1.000
    C83      C        0.81293    0.05847    0.38007    1.000
    C84      C        0.69143    0.11627    0.69657    1.000
    O25      O        0.11132    0.63007    0.99825    1.000
    O26      O        0.97010    0.56100    0.95181    1.000
    N13      N        0.12080    0.57910    0.92074    1.000
    C85      C        0.19390    0.65040    0.92111    1.000
    H37      H        0.21980    0.67260    0.94410    1.000
    C86      C        0.23340    0.69340    0.88877    1.000
    C87      C        0.19520    0.65900    0.85580    1.000
    H38      H        0.22130    0.68540    0.83350    1.000
    C88      C        0.11980    0.58700    0.85488    1.000
    C89      C        0.96040    0.54440    0.74562    1.000
    H39      H        0.97620    0.59630    0.75670    1.000
    C90      C        0.91220    0.52040    0.71340    1.000
    C91      C        0.09150    0.64190    0.02990    1.000
    O27      O        0.77799    0.96340    0.33158    1.000
    O28      O        0.63677    0.89433    0.28514    1.000
    N14      N        0.78747    0.91243    0.25407    1.000
    C92      C        0.86057    0.98373    0.25444    1.000
    H40      H        0.88647    0.00593    0.27743    1.000
    C93      C        0.90007    0.02673    0.22210    1.000
    C94      C        0.86187    0.99233    0.18913    1.000
    H41      H        0.88797    0.01873    0.16683    1.000
    C95      C        0.78647    0.92033    0.18821    1.000
    C96      C        0.62707    0.87773    0.07895    1.000
    H42      H        0.64287    0.92963    0.09003    1.000
    C97      C        0.57887    0.85373    0.04673    1.000
    C98      C        0.75817    0.97523    0.36323    1.000
    O29      O        0.44465    0.29674    0.66492    1.000
    O30      O        0.30343    0.22767    0.61848    1.000
    N15      N        0.45413    0.24577    0.58741    1.000
    C99      C        0.52723    0.31707    0.58778    1.000
    H43      H        0.55313    0.33927    0.61077    1.000
    C100     C        0.56673    0.36007    0.55544    1.000
    C101     C        0.52853    0.32567    0.52247    1.000
    H44      H        0.55463    0.35207    0.50017    1.000
    C102     C        0.45313    0.25367    0.52155    1.000
    C103     C        0.29373    0.21107    0.41229    1.000
    H45      H        0.30953    0.26297    0.42337    1.000
    C104     C        0.24553    0.18707    0.38007    1.000
    C105     C        0.42483    0.30857    0.69657    1.000
    O31      O        0.51875    0.88868    0.99825    1.000
    O32      O        0.59090    0.02990    0.95181    1.000
    N16      N        0.45830    0.87920    0.92074    1.000
    C106     C        0.45650    0.80610    0.92111    1.000
    H46      H        0.45280    0.78020    0.94410    1.000
    C107     C        0.46000    0.76660    0.88877    1.000
    C108     C        0.46380    0.80480    0.85580    1.000
    H47      H        0.46410    0.77870    0.83350    1.000
    C109     C        0.46720    0.88020    0.85488    1.000
    C110     C        0.58400    0.03960    0.74562    1.000
    H48      H        0.62010    0.02380    0.75670    1.000
    C111     C        0.60820    0.08780    0.71340    1.000
    C112     C        0.55040    0.90850    0.02990    1.000
    O33      O        0.18542    0.22201    0.33158    1.000
    O34      O        0.25757    0.36323    0.28514    1.000
    N17      N        0.12497    0.21253    0.25407    1.000
    C113     C        0.12317    0.13943    0.25444    1.000
    H49      H        0.11947    0.11353    0.27743    1.000
    C114     C        0.12667    0.09993    0.22210    1.000
    C115     C        0.13047    0.13813    0.18913    1.000
    H50      H        0.13077    0.11203    0.16683    1.000
    C116     C        0.13387    0.21353    0.18821    1.000
    C117     C        0.25067    0.37293    0.07895    1.000
    H51      H        0.28677    0.35713    0.09003    1.000
    C118     C        0.27487    0.42113    0.04673    1.000
    C119     C        0.21707    0.24183    0.36323    1.000
    O35      O        0.85208    0.55535    0.66492    1.000
    O36      O        0.92423    0.69657    0.61848    1.000
    N18      N        0.79163    0.54587    0.58741    1.000
    C120     C        0.78983    0.47277    0.58778    1.000
    H52      H        0.78613    0.44687    0.61077    1.000
    C121     C        0.79333    0.43327    0.55544    1.000
    C122     C        0.79713    0.47147    0.52247    1.000
    H53      H        0.79743    0.44537    0.50017    1.000
    C123     C        0.80053    0.54687    0.52155    1.000
    C124     C        0.91733    0.70627    0.41229    1.000
    H54      H        0.95343    0.69047    0.42337    1.000
    C125     C        0.94153    0.75447    0.38007    1.000
    C126     C        0.88373    0.57517    0.69657    1.000
    O37      O        0.51875    0.63007    0.99825    1.000
    O38      O        0.59090    0.56100    0.95181    1.000
    N19      N        0.45830    0.57910    0.92074    1.000
    C127     C        0.45650    0.65040    0.92111    1.000
    H55      H        0.45280    0.67260    0.94410    1.000
    C128     C        0.46000    0.69340    0.88877    1.000
    C129     C        0.46380    0.65900    0.85580    1.000
    H56      H        0.46410    0.68540    0.83350    1.000
    C130     C        0.46720    0.58700    0.85488    1.000
    C131     C        0.58400    0.54440    0.74562    1.000
    H57      H        0.62010    0.59630    0.75670    1.000
    C132     C        0.60820    0.52040    0.71340    1.000
    C133     C        0.55040    0.64190    0.02990    1.000
    O39      O        0.18542    0.96340    0.33158    1.000
    O40      O        0.25757    0.89433    0.28514    1.000
    N20      N        0.12497    0.91243    0.25407    1.000
    C134     C        0.12317    0.98373    0.25444    1.000
    H58      H        0.11947    0.00593    0.27743    1.000
    C135     C        0.12667    0.02673    0.22210    1.000
    C136     C        0.13047    0.99233    0.18913    1.000
    H59      H        0.13077    0.01873    0.16683    1.000
    C137     C        0.13387    0.92033    0.18821    1.000
    C138     C        0.25067    0.87773    0.07895    1.000
    H60      H        0.28677    0.92963    0.09003    1.000
    C139     C        0.27487    0.85373    0.04673    1.000
    C140     C        0.21707    0.97523    0.36323    1.000
    O41      O        0.85208    0.29674    0.66492    1.000
    O42      O        0.92423    0.22767    0.61848    1.000
    N21      N        0.79163    0.24577    0.58741    1.000
    C141     C        0.78983    0.31707    0.58778    1.000
    H61      H        0.78613    0.33927    0.61077    1.000
    C142     C        0.79333    0.36007    0.55544    1.000
    C143     C        0.79713    0.32567    0.52247    1.000
    H62      H        0.79743    0.35207    0.50017    1.000
    C144     C        0.80053    0.25367    0.52155    1.000
    C145     C        0.91733    0.21107    0.41229    1.000
    H63      H        0.95343    0.26297    0.42337    1.000
    C146     C        0.94153    0.18707    0.38007    1.000
    C147     C        0.88373    0.30857    0.69657    1.000
    O43      O        0.36993    0.88868    0.99825    1.000
    O44      O        0.43900    0.02990    0.95181    1.000
    N22      N        0.42090    0.87920    0.92074    1.000
    C148     C        0.34960    0.80610    0.92111    1.000
    H64      H        0.32740    0.78020    0.94410    1.000
    C149     C        0.30660    0.76660    0.88877    1.000
    C150     C        0.34100    0.80480    0.85580    1.000
    H65      H        0.31460    0.77870    0.83350    1.000
    C151     C        0.41300    0.88020    0.85488    1.000
    C152     C        0.45560    0.03960    0.74562    1.000
    H66      H        0.40370    0.02380    0.75670    1.000
    C153     C        0.47960    0.08780    0.71340    1.000
    C154     C        0.35810    0.90850    0.02990    1.000
    O45      O        0.03660    0.22201    0.33158    1.000
    O46      O        0.10567    0.36323    0.28514    1.000
    N23      N        0.08757    0.21253    0.25407    1.000
    C155     C        0.01627    0.13943    0.25444    1.000
    H67      H        0.99407    0.11353    0.27743    1.000
    C156     C        0.97327    0.09993    0.22210    1.000
    C157     C        0.00767    0.13813    0.18913    1.000
    H68      H        0.98127    0.11203    0.16683    1.000
    C158     C        0.07967    0.21353    0.18821    1.000
    C159     C        0.12227    0.37293    0.07895    1.000
    H69      H        0.07037    0.35713    0.09003    1.000
    C160     C        0.14627    0.42113    0.04673    1.000
    C161     C        0.02477    0.24183    0.36323    1.000
    O47      O        0.70326    0.55535    0.66492    1.000
    O48      O        0.77233    0.69657    0.61848    1.000
    N24      N        0.75423    0.54587    0.58741    1.000
    C162     C        0.68293    0.47277    0.58778    1.000
    H70      H        0.66073    0.44687    0.61077    1.000
    C163     C        0.63993    0.43327    0.55544    1.000
    C164     C        0.67433    0.47147    0.52247    1.000
    H71      H        0.64793    0.44537    0.50017    1.000
    C165     C        0.74633    0.54687    0.52155    1.000
    C166     C        0.78893    0.70627    0.41229    1.000
    H72      H        0.73703    0.69047    0.42337    1.000
    C167     C        0.81293    0.75447    0.38007    1.000
    C168     C        0.69143    0.57517    0.69657    1.000
    O49      O        0.11132    0.48125    0.99825    1.000
    O50      O        0.97010    0.40910    0.95181    1.000
    N25      N        0.12080    0.54170    0.92074    1.000
    C169     C        0.19390    0.54350    0.92111    1.000
    H73      H        0.21980    0.54720    0.94410    1.000
    C170     C        0.23340    0.54000    0.88877    1.000
    C171     C        0.19520    0.53620    0.85580    1.000
    H74      H        0.22130    0.53590    0.83350    1.000
    C172     C        0.11980    0.53280    0.85488    1.000
    C173     C        0.96040    0.41600    0.74562    1.000
    H75      H        0.97620    0.37990    0.75670    1.000
    C174     C        0.91220    0.39180    0.71340    1.000
    C175     C        0.09150    0.44960    0.02990    1.000
    O51      O        0.77799    0.81458    0.33158    1.000
    O52      O        0.63677    0.74243    0.28514    1.000
    N26      N        0.78747    0.87503    0.25407    1.000
    C176     C        0.86057    0.87683    0.25444    1.000
    H76      H        0.88647    0.88053    0.27743    1.000
    C177     C        0.90007    0.87333    0.22210    1.000
    C178     C        0.86187    0.86953    0.18913    1.000
    H77      H        0.88797    0.86923    0.16683    1.000
    C179     C        0.78647    0.86613    0.18821    1.000
    C180     C        0.62707    0.74933    0.07895    1.000
    H78      H        0.64287    0.71323    0.09003    1.000
    C181     C        0.57887    0.72513    0.04673    1.000
    C182     C        0.75817    0.78293    0.36323    1.000
    O53      O        0.44465    0.14792    0.66492    1.000
    O54      O        0.30343    0.07577    0.61848    1.000
    N27      N        0.45413    0.20837    0.58741    1.000
    C183     C        0.52723    0.21017    0.58778    1.000
    H79      H        0.55313    0.21387    0.61077    1.000
    C184     C        0.56673    0.20667    0.55544    1.000
    C185     C        0.52853    0.20287    0.52247    1.000
    H80      H        0.55463    0.20257    0.50017    1.000
    C186     C        0.45313    0.19947    0.52155    1.000
    C187     C        0.29373    0.08267    0.41229    1.000
    H81      H        0.30953    0.04657    0.42337    1.000
    C188     C        0.24553    0.05847    0.38007    1.000
    C189     C        0.42483    0.11627    0.69657    1.000
    O55      O        0.63007    0.51875    0.00175    1.000
    O56      O        0.56100    0.59090    0.04819    1.000
    N28      N        0.57910    0.45830    0.07926    1.000
    C190     C        0.65040    0.45650    0.07889    1.000
    H82      H        0.67260    0.45280    0.05590    1.000
    C191     C        0.69340    0.46000    0.11123    1.000
    C192     C        0.65900    0.46380    0.14420    1.000
    H83      H        0.68540    0.46410    0.16650    1.000
    C193     C        0.58700    0.46720    0.14512    1.000
    C194     C        0.54440    0.58400    0.25438    1.000
    H84      H        0.59630    0.62010    0.24330    1.000
    C195     C        0.52040    0.60820    0.28660    1.000
    C196     C        0.64190    0.55040    0.97010    1.000
    O57      O        0.29674    0.85208    0.33508    1.000
    O58      O        0.22767    0.92423    0.38152    1.000
    N29      N        0.24577    0.79163    0.41259    1.000
    C197     C        0.31707    0.78983    0.41222    1.000
    H85      H        0.33927    0.78613    0.38923    1.000
    C198     C        0.36007    0.79333    0.44456    1.000
    C199     C        0.32567    0.79713    0.47753    1.000
    H86      H        0.35207    0.79743    0.49983    1.000
    C200     C        0.25367    0.80053    0.47845    1.000
    C201     C        0.21107    0.91733    0.58771    1.000
    H87      H        0.26297    0.95343    0.57663    1.000
    C202     C        0.18707    0.94153    0.61993    1.000
    C203     C        0.30857    0.88373    0.30343    1.000
    O59      O        0.96340    0.18542    0.66842    1.000
    O60      O        0.89433    0.25757    0.71486    1.000
    N30      N        0.91243    0.12497    0.74593    1.000
    C204     C        0.98373    0.12317    0.74556    1.000
    H88      H        0.00593    0.11947    0.72257    1.000
    C205     C        0.02673    0.12667    0.77790    1.000
    C206     C        0.99233    0.13047    0.81087    1.000
    H89      H        0.01873    0.13077    0.83317    1.000
    C207     C        0.92033    0.13387    0.81179    1.000
    C208     C        0.87773    0.25067    0.92105    1.000
    H90      H        0.92963    0.28677    0.90997    1.000
    C209     C        0.85373    0.27487    0.95327    1.000
    C210     C        0.97523    0.21707    0.63677    1.000
    O61      O        0.88868    0.36993    0.00175    1.000
    O62      O        0.02990    0.43900    0.04819    1.000
    N31      N        0.87920    0.42090    0.07926    1.000
    C211     C        0.80610    0.34960    0.07889    1.000
    H91      H        0.78020    0.32740    0.05590    1.000
    C212     C        0.76660    0.30660    0.11123    1.000
    C213     C        0.80480    0.34100    0.14420    1.000
    H92      H        0.77870    0.31460    0.16650    1.000
    C214     C        0.88020    0.41300    0.14512    1.000
    C215     C        0.03960    0.45560    0.25438    1.000
    H93      H        0.02380    0.40370    0.24330    1.000
    C216     C        0.08780    0.47960    0.28660    1.000
    C217     C        0.90850    0.35810    0.97010    1.000
    O63      O        0.55535    0.70326    0.33508    1.000
    O64      O        0.69657    0.77233    0.38152    1.000
    N32      N        0.54587    0.75423    0.41259    1.000
    C218     C        0.47277    0.68293    0.41222    1.000
    H94      H        0.44687    0.66073    0.38923    1.000
    C219     C        0.43327    0.63993    0.44456    1.000
    C220     C        0.47147    0.67433    0.47753    1.000
    H95      H        0.44537    0.64793    0.49983    1.000
    C221     C        0.54687    0.74633    0.47845    1.000
    C222     C        0.70627    0.78893    0.58771    1.000
    H96      H        0.69047    0.73703    0.57663    1.000
    C223     C        0.75447    0.81293    0.61993    1.000
    C224     C        0.57517    0.69143    0.30343    1.000
    O65      O        0.22201    0.03660    0.66842    1.000
    O66      O        0.36323    0.10567    0.71486    1.000
    N33      N        0.21253    0.08757    0.74593    1.000
    C225     C        0.13943    0.01627    0.74556    1.000
    H97      H        0.11353    0.99407    0.72257    1.000
    C226     C        0.09993    0.97327    0.77790    1.000
    C227     C        0.13813    0.00767    0.81087    1.000
    H98      H        0.11203    0.98127    0.83317    1.000
    C228     C        0.21353    0.07967    0.81179    1.000
    C229     C        0.37293    0.12227    0.92105    1.000
    H99      H        0.35713    0.07037    0.90997    1.000
    C230     C        0.42113    0.14627    0.95327    1.000
    C231     C        0.24183    0.02477    0.63677    1.000
    O67      O        0.48125    0.11132    0.00175    1.000
    O68      O        0.40910    0.97010    0.04819    1.000
    N34      N        0.54170    0.12080    0.07926    1.000
    C232     C        0.54350    0.19390    0.07889    1.000
    H100     H        0.54720    0.21980    0.05590    1.000
    C233     C        0.54000    0.23340    0.11123    1.000
    C234     C        0.53620    0.19520    0.14420    1.000
    H101     H        0.53590    0.22130    0.16650    1.000
    C235     C        0.53280    0.11980    0.14512    1.000
    C236     C        0.41600    0.96040    0.25438    1.000
    H102     H        0.37990    0.97620    0.24330    1.000
    C237     C        0.39180    0.91220    0.28660    1.000
    C238     C        0.44960    0.09150    0.97010    1.000
    O69      O        0.14792    0.44465    0.33508    1.000
    O70      O        0.07577    0.30343    0.38152    1.000
    N35      N        0.20837    0.45413    0.41259    1.000
    C239     C        0.21017    0.52723    0.41222    1.000
    H103     H        0.21387    0.55313    0.38923    1.000
    C240     C        0.20667    0.56673    0.44456    1.000
    C241     C        0.20287    0.52853    0.47753    1.000
    H104     H        0.20257    0.55463    0.49983    1.000
    C242     C        0.19947    0.45313    0.47845    1.000
    C243     C        0.08267    0.29373    0.58771    1.000
    H105     H        0.04657    0.30953    0.57663    1.000
    C244     C        0.05847    0.24553    0.61993    1.000
    C245     C        0.11627    0.42483    0.30343    1.000
    O71      O        0.81458    0.77799    0.66842    1.000
    O72      O        0.74243    0.63677    0.71486    1.000
    N36      N        0.87503    0.78747    0.74593    1.000
    C246     C        0.87683    0.86057    0.74556    1.000
    H106     H        0.88053    0.88647    0.72257    1.000
    C247     C        0.87333    0.90007    0.77790    1.000
    C248     C        0.86953    0.86187    0.81087    1.000
    H107     H        0.86923    0.88797    0.83317    1.000
    C249     C        0.86613    0.78647    0.81179    1.000
    C250     C        0.74933    0.62707    0.92105    1.000
    H108     H        0.71323    0.64287    0.90997    1.000
    C251     C        0.72513    0.57887    0.95327    1.000
    C252     C        0.78293    0.75817    0.63677    1.000
    Zn1      Zn       0.52675    0.47325    0.03258    1.000
    C253     C        0.54209    0.45791    0.11183    1.000
    C254     C        0.53680    0.46320    0.17889    1.000
    C255     C        0.51685    0.48315    0.20592    1.000
    C256     C        0.49230    0.50770    0.23899    1.000
    C257     C        0.44520    0.55480    0.30252    1.000
    H109     H        0.42990    0.57010    0.32480    1.000
    Zn2      Zn       0.19342    0.80658    0.36591    1.000
    C258     C        0.20876    0.79124    0.44516    1.000
    C259     C        0.20347    0.79653    0.51222    1.000
    C260     C        0.18352    0.81648    0.53925    1.000
    C261     C        0.15897    0.84103    0.57232    1.000
    C262     C        0.11186    0.88814    0.63585    1.000
    H110     H        0.09657    0.90343    0.65813    1.000
    Zn3      Zn       0.86008    0.13992    0.69924    1.000
    C263     C        0.87542    0.12458    0.77850    1.000
    C264     C        0.87013    0.12987    0.84556    1.000
    C265     C        0.85018    0.14982    0.87259    1.000
    C266     C        0.82563    0.17437    0.90566    1.000
    C267     C        0.77853    0.22147    0.96919    1.000
    H111     H        0.76323    0.23677    0.99147    1.000
    Zn4      Zn       0.52675    0.05350    0.03258    1.000
    C268     C        0.54209    0.08418    0.11183    1.000
    C269     C        0.53680    0.07360    0.17889    1.000
    C270     C        0.51685    0.03370    0.20592    1.000
    C271     C        0.49230    0.98460    0.23899    1.000
    C272     C        0.44520    0.89039    0.30252    1.000
    H112     H        0.42990    0.85980    0.32480    1.000
    Zn5      Zn       0.19342    0.38683    0.36591    1.000
    C273     C        0.20876    0.41751    0.44516    1.000
    C274     C        0.20347    0.40693    0.51222    1.000
    C275     C        0.18352    0.36703    0.53925    1.000
    C276     C        0.15897    0.31793    0.57232    1.000
    C277     C        0.11186    0.22372    0.63585    1.000
    H113     H        0.09657    0.19313    0.65813    1.000
    Zn6      Zn       0.86008    0.72017    0.69924    1.000
    C278     C        0.87542    0.75085    0.77850    1.000
    C279     C        0.87013    0.74027    0.84556    1.000
    C280     C        0.85018    0.70037    0.87259    1.000
    C281     C        0.82563    0.65127    0.90566    1.000
    C282     C        0.77853    0.55706    0.96919    1.000
    H114     H        0.76323    0.52647    0.99147    1.000
    Zn7      Zn       0.94650    0.47325    0.03258    1.000
    C283     C        0.91582    0.45791    0.11183    1.000
    C284     C        0.92640    0.46320    0.17889    1.000
    C285     C        0.96630    0.48315    0.20592    1.000
    C286     C        0.01540    0.50770    0.23899    1.000
    C287     C        0.10961    0.55480    0.30252    1.000
    H115     H        0.14020    0.57010    0.32480    1.000
    Zn8      Zn       0.61317    0.80658    0.36591    1.000
    C288     C        0.58249    0.79124    0.44516    1.000
    C289     C        0.59307    0.79653    0.51222    1.000
    C290     C        0.63297    0.81648    0.53925    1.000
    C291     C        0.68207    0.84103    0.57232    1.000
    C292     C        0.77628    0.88814    0.63585    1.000
    H116     H        0.80687    0.90343    0.65813    1.000
    Zn9      Zn       0.27983    0.13992    0.69924    1.000
    C293     C        0.24915    0.12458    0.77850    1.000
    C294     C        0.25973    0.12987    0.84556    1.000
    C295     C        0.29963    0.14982    0.87259    1.000
    C296     C        0.34873    0.17437    0.90566    1.000
    C297     C        0.44294    0.22147    0.96919    1.000
    H117     H        0.47353    0.23677    0.99147    1.000
    Zn10     Zn       0.47325    0.52675    0.96742    1.000
    C298     C        0.45791    0.54209    0.88817    1.000
    C299     C        0.46320    0.53680    0.82111    1.000
    C300     C        0.48315    0.51685    0.79408    1.000
    C301     C        0.50770    0.49230    0.76101    1.000
    C302     C        0.55480    0.44520    0.69748    1.000
    H118     H        0.57010    0.42990    0.67520    1.000
    Zn11     Zn       0.13992    0.86008    0.30076    1.000
    C303     C        0.12458    0.87542    0.22150    1.000
    C304     C        0.12987    0.87013    0.15444    1.000
    C305     C        0.14982    0.85018    0.12741    1.000
    C306     C        0.17437    0.82563    0.09434    1.000
    C307     C        0.22147    0.77853    0.03081    1.000
    H119     H        0.23677    0.76323    0.00853    1.000
    Zn12     Zn       0.80658    0.19342    0.63409    1.000
    C308     C        0.79124    0.20876    0.55484    1.000
    C309     C        0.79653    0.20347    0.48778    1.000
    C310     C        0.81648    0.18352    0.46075    1.000
    C311     C        0.84103    0.15897    0.42768    1.000
    C312     C        0.88814    0.11186    0.36415    1.000
    H120     H        0.90343    0.09657    0.34187    1.000
    Zn13     Zn       0.05350    0.52675    0.96742    1.000
    C313     C        0.08418    0.54209    0.88817    1.000
    C314     C        0.07360    0.53680    0.82111    1.000
    C315     C        0.03370    0.51685    0.79408    1.000
    C316     C        0.98460    0.49230    0.76101    1.000
    C317     C        0.89039    0.44520    0.69748    1.000
    H121     H        0.85980    0.42990    0.67520    1.000
    Zn14     Zn       0.72017    0.86008    0.30076    1.000
    C318     C        0.75085    0.87542    0.22150    1.000
    C319     C        0.74027    0.87013    0.15444    1.000
    C320     C        0.70037    0.85018    0.12741    1.000
    C321     C        0.65127    0.82563    0.09434    1.000
    C322     C        0.55706    0.77853    0.03081    1.000
    H122     H        0.52647    0.76323    0.00853    1.000
    Zn15     Zn       0.38683    0.19342    0.63409    1.000
    C323     C        0.41751    0.20876    0.55484    1.000
    C324     C        0.40693    0.20347    0.48778    1.000
    C325     C        0.36703    0.18352    0.46075    1.000
    C326     C        0.31793    0.15897    0.42768    1.000
    C327     C        0.22372    0.11186    0.36415    1.000
    H123     H        0.19313    0.09657    0.34187    1.000
    Zn16     Zn       0.47325    0.94650    0.96742    1.000
    C328     C        0.45791    0.91582    0.88817    1.000
    C329     C        0.46320    0.92640    0.82111    1.000
    C330     C        0.48315    0.96630    0.79408    1.000
    C331     C        0.50770    0.01540    0.76101    1.000
    C332     C        0.55480    0.10961    0.69748    1.000
    H124     H        0.57010    0.14020    0.67520    1.000
    Zn17     Zn       0.13992    0.27983    0.30076    1.000
    C333     C        0.12458    0.24915    0.22150    1.000
    C334     C        0.12987    0.25973    0.15444    1.000
    C335     C        0.14982    0.29963    0.12741    1.000
    C336     C        0.17437    0.34873    0.09434    1.000
    C337     C        0.22147    0.44294    0.03081    1.000
    H125     H        0.23677    0.47353    0.00853    1.000
    Zn18     Zn       0.80658    0.61317    0.63409    1.000
    C338     C        0.79124    0.58249    0.55484    1.000
    C339     C        0.79653    0.59307    0.48778    1.000
    C340     C        0.81648    0.63297    0.46075    1.000
    C341     C        0.84103    0.68207    0.42768    1.000
    C342     C        0.88814    0.77628    0.36415    1.000
    H126     H        0.90343    0.80687    0.34187    1.000
