# CIF file generated by openbabel 3.1.0, see https://openbabel.org
data_I
_chemical_name_common 'image0'
_cell_length_a 9.54
_cell_length_b 7.611
_cell_length_c 7.12
_cell_angle_alpha 90
_cell_angle_beta 100.95
_cell_angle_gamma 90
_space_group_name_H-M_alt 'P 1'
_space_group_name_Hall 'P 1'
loop_
    _symmetry_equiv_pos_as_xyz
    x,y,z
loop_
    _atom_site_label
    _atom_site_type_symbol
    _atom_site_fract_x
    _atom_site_fract_y
    _atom_site_fract_z
    _atom_site_occupancy
    N1       N        0.06220    0.22090    0.23020    1.000
    C1       C        0.04050    0.32730    0.33400    1.000
    H1       H        0.28700    0.08000    0.02200    1.000
    H2       H        0.20000    0.10100    0.67700    1.000
    H3       H        0.47400    0.10600    0.80800    1.000
    H4       H        0.36300    0.10600    0.43100    1.000
    N2       N        0.93780    0.22090    0.76980    1.000
    C2       C        0.95950    0.32730    0.66600    1.000
    H5       H        0.71300    0.08000    0.97800    1.000
    H6       H        0.80000    0.10100    0.32300    1.000
    H7       H        0.52600    0.10600    0.19200    1.000
    H8       H        0.63700    0.10600    0.56900    1.000
    N3       N        0.93780    0.77910    0.76980    1.000
    C3       C        0.95950    0.67270    0.66600    1.000
    H9       H        0.71300    0.92000    0.97800    1.000
    H10      H        0.80000    0.89900    0.32300    1.000
    H11      H        0.52600    0.89400    0.19200    1.000
    H12      H        0.63700    0.89400    0.56900    1.000
    N4       N        0.06220    0.77910    0.23020    1.000
    C4       C        0.04050    0.67270    0.33400    1.000
    H13      H        0.28700    0.92000    0.02200    1.000
    H14      H        0.20000    0.89900    0.67700    1.000
    H15      H        0.47400    0.89400    0.80800    1.000
    H16      H        0.36300    0.89400    0.43100    1.000
    Cd1      Cd       0.00000    0.00000    0.00000    1.000
    Ni1      Ni       0.00000    0.50000    0.50000    1.000
    N5       N        0.22970    0.00000    0.94020    1.000
    C5       C        0.25220    0.00000    0.74190    1.000
    C6       C        0.40660    0.00000    0.72100    1.000
    C7       C        0.42270    0.00000    0.51120    1.000
    N6       N        0.77030    0.00000    0.05980    1.000
    C8       C        0.74780    0.00000    0.25810    1.000
    C9       C        0.59340    0.00000    0.27900    1.000
    C10      C        0.57730    0.00000    0.48880    1.000
