# CIF file generated by openbabel 3.1.0, see https://openbabel.org
data_I
_chemical_name_common 'image0'
_cell_length_a 14.9953
_cell_length_b 17.5335
_cell_length_c 20.2381
_cell_angle_alpha 115.225
_cell_angle_beta 92.329
_cell_angle_gamma 105.606
_space_group_name_H-M_alt 'P 1'
_space_group_name_Hall 'P 1'
loop_
    _symmetry_equiv_pos_as_xyz
    x,y,z
loop_
    _atom_site_label
    _atom_site_type_symbol
    _atom_site_fract_x
    _atom_site_fract_y
    _atom_site_fract_z
    _atom_site_occupancy
    Zn1      Zn       0.73128    0.63995    0.34736    1.000
    Zn2      Zn       0.79710    0.70182    0.94255    1.000
    Zn3      Zn       0.85808    0.77813    0.67850    1.000
    Zn4      Zn       0.68762    0.55697    0.60739    1.000
    O1       O        0.64010    0.43160    0.58020    1.000
    O2       O        0.69520    0.51310    0.27890    1.000
    O3       O        0.55710    0.49580    0.31590    1.000
    O4       O        0.75270    0.58100    0.92910    1.000
    O5       O        0.92920    0.74100    0.98630    1.000
    N1       N        0.64190    0.70820    0.34480    1.000
    O6       O        0.54870    0.42420    0.48800    1.000
    O7       O        0.85850    0.67390    0.32690    1.000
    N2       N        0.72180    0.62120    0.54530    1.000
    N3       N        0.46400    0.11470    0.78350    1.000
    N4       N        0.77990    0.86270    0.71300    1.000
    N5       N        0.81590    0.71400    0.73990    1.000
    N6       N        0.34120    0.97210    0.40430    1.000
    N7       N        0.41400    0.04440    0.10010    1.000
    N8       N        0.75050    0.63230    0.71530    1.000
    N9       N        0.79220    0.70090    0.57150    1.000
    N10      N        0.71820    0.78220    0.99160    1.000
    N11      N        0.74360    0.65180    0.45210    1.000
    C1       C        0.52050    0.81000    0.36220    1.000
    C2       C        0.63330    0.23370    0.18050    1.000
    H1       H        0.68000    0.20660    0.17310    1.000
    N12      N        0.79090    0.68920    0.83720    1.000
    O8       O        0.93790    0.86020    0.97660    1.000
    C3       C        0.62970    0.74970    0.00200    1.000
    H2       H        0.60750    0.69030    0.99200    1.000
    O9       O        0.60930    0.56340    0.88500    1.000
    C4       C        0.55290    0.67190    0.31380    1.000
    H3       H        0.52980    0.61040    0.28600    1.000
    C5       C        0.53950    0.29070    0.49340    1.000
    C6       C        0.47160    0.10530    0.44050    1.000
    C7       C        0.49060    0.72040    0.32000    1.000
    H4       H        0.42860    0.69120    0.29520    1.000
    C8       C        0.61300    0.46550    0.27880    1.000
    O10      O        0.87240    0.80650    0.41600    1.000
    C9       C        0.41030    0.15200    0.43790    1.000
    H5       H        0.34650    0.12210    0.41910    1.000
    C10      C        0.56660    0.15140    0.47030    1.000
    H6       H        0.60830    0.12100    0.47120    1.000
    C11      C        0.49370    0.95540    0.39680    1.000
    H7       H        0.55810    0.98120    0.40180    1.000
    C12      C        0.59100    0.01730    0.75990    1.000
    C13      C        0.44540    0.24320    0.46360    1.000
    H8       H        0.40440    0.27360    0.46070    1.000
    C14      C        0.57100    0.03420    0.09550    1.000
    H9       H        0.63550    0.06280    0.10500    1.000
    C15      C        0.74900    0.99840    0.73820    1.000
    H10      H        0.77120    0.05600    0.74350    1.000
    C16      C        0.53550    0.94210    0.06320    1.000
    C17      C        0.43480    0.00800    0.41290    1.000
    C18      C        0.73720    0.62020    0.77450    1.000
    H11      H        0.69530    0.56930    0.77310    1.000
    C19      C        0.36110    0.82810    0.36190    1.000
    H12      H        0.33380    0.76710    0.34360    1.000
    C20      C        0.80760    0.94680    0.72300    1.000
    H13      H        0.86940    0.97150    0.71970    1.000
    C21      C        0.65670    0.32680    0.22090    1.000
    H14      H        0.71930    0.36120    0.24110    1.000
    C22      C        0.55780    0.15620    0.80240    1.000
    C23      C        0.27550    0.91820    0.05590    1.000
    C24      C        0.45670    0.86440    0.37340    1.000
    C25      C        0.58910    0.25470    0.83380    1.000
    C26      C        0.58910    0.36700    0.23080    1.000
    C27      C        0.50720    0.08400    0.11390    1.000
    C28      C        0.49350    0.97490    0.74120    1.000
    H15      H        0.46930    0.91330    0.72040    1.000
    C29      C        0.57750    0.38920    0.52170    1.000
    C30      C        0.53920    0.18290    0.15170    1.000
    C31      C        0.74600    0.86770    0.00800    1.000
    H16      H        0.80690    0.89260    0.00300    1.000
    C32      C        0.62360    0.10950    0.79280    1.000
    H17      H        0.68780    0.14010    0.80830    1.000
    C33      C        0.83800    0.74330    0.81070    1.000
    H18      H        0.88310    0.79770    0.84100    1.000
    C34      C        0.61300    0.84790    0.39820    1.000
    H19      H        0.63610    0.90870    0.42950    1.000
    C35      C        0.69060    0.82980    0.71980    1.000
    H20      H        0.66930    0.77160    0.71320    1.000
    C36      C        0.62950    0.87900    0.73640    1.000
    H21      H        0.56890    0.85360    0.74160    1.000
    C37      C        0.69490    0.59530    0.47490    1.000
    H22      H        0.64700    0.54310    0.44420    1.000
    C38      C        0.80270    0.71660    0.51430    1.000
    H23      H        0.84610    0.76710    0.51640    1.000
    C39      C        0.43900    0.90260    0.05060    1.000
    H24      H        0.41340    0.84110    0.03020    1.000
    C40      C        0.47220    0.22650    0.16040    1.000
    H25      H        0.40950    0.19320    0.13960    1.000
    C41      C        0.65620    0.96460    0.74550    1.000
    C42      C        0.67970    0.30310    0.83630    1.000
    H26      H        0.72340    0.27360    0.81940    1.000
    C43      C        0.38040    0.95620    0.06900    1.000
    C44      C        0.43330    0.02570    0.75410    1.000
    C45      C        0.07970    0.85300    0.02220    1.000
    C46      C        0.30390    0.88400    0.37800    1.000
    C47      C        0.57160    0.80130    0.02690    1.000
    H27      H        0.51180    0.77620    0.03370    1.000
    C48      C        0.52380    0.29940    0.85510    1.000
    H28      H        0.46200    0.26840    0.85330    1.000
    C49      C        0.13380    0.79530    0.01090    1.000
    H29      H        0.10350    0.73480    0.99300    1.000
    C50      C        0.59850    0.24380    0.49890    1.000
    H30      H        0.66090    0.27480    0.52220    1.000
    C51      C        0.49620    0.31660    0.19860    1.000
    H31      H        0.45020    0.34430    0.20310    1.000
    C52      C        0.22040    0.97140    0.07360    1.000
    H32      H        0.24950    0.03250    0.10000    1.000
    C53      C        0.67210    0.79670    0.38840    1.000
    H33      H        0.73440    0.82420    0.41260    1.000
    C54      C        0.70660    0.39280    0.86280    1.000
    H34      H        0.76910    0.42360    0.86630    1.000
    C55      C        0.55160    0.39240    0.87980    1.000
    H35      H        0.50730    0.42210    0.89280    1.000
    C56      C        0.23040    0.82700    0.02570    1.000
    H36      H        0.26530    0.78810    0.01580    1.000
    C57      C        0.69100    0.92170    0.03200    1.000
    H37      H        0.71450    0.98100    0.04170    1.000
    C58      C        0.90330    0.75160    0.36310    1.000
    C59      C        0.60050    0.88850    0.04170    1.000
    C60      C        0.64330    0.43910    0.88470    1.000
    C61      C        0.12490    0.94050    0.05480    1.000
    H38      H        0.09100    0.98030    0.06470    1.000
    C62      C        0.67000    0.53350    0.90350    1.000
    C63      C        0.97360    0.81470    0.99340    1.000
    C64      C        0.13410    0.90250    0.68800    1.000
    C65      C        0.19000    0.86300    0.71030    1.000
    H39      H        0.16240    0.81010    0.71250    1.000
    C66      C        0.28710    0.90270    0.72920    1.000
    H40      H        0.32450    0.87630    0.74410    1.000
    C67      C        0.32820    0.98180    0.72590    1.000
    C68      C        0.27230    0.02130    0.70360    1.000
    H41      H        0.29990    0.07420    0.70140    1.000
    C69      C        0.17530    0.98160    0.68470    1.000
    H42      H        0.13790    0.00810    0.66980    1.000
    O11      O        0.99270    0.80640    0.69240    1.000
    O12      O        0.97510    0.88670    0.64120    1.000
    C70      C        0.02960    0.86450    0.67670    1.000
    C71      C        0.05520    0.87570    0.40380    1.000
    H43      H        0.02330    0.91510    0.42920    1.000
    C72      C        0.15170    0.90680    0.40720    1.000
    H44      H        0.18440    0.96700    0.43490    1.000
    C73      C        0.19930    0.84780    0.36930    1.000
    C74      C        0.15040    0.75780    0.32800    1.000
    H45      H        0.18220    0.71840    0.30260    1.000
    C75      C        0.05390    0.72670    0.32450    1.000
    H46      H        0.02110    0.66640    0.29690    1.000
    C76      C        0.00630    0.78560    0.36250    1.000
    Zn5      Zn       0.26872    0.36005    0.65264    1.000
    Zn6      Zn       0.20290    0.29818    0.05745    1.000
    Zn7      Zn       0.14192    0.22187    0.32150    1.000
    Zn8      Zn       0.31238    0.44303    0.39261    1.000
    O13      O        0.35990    0.56840    0.41980    1.000
    O14      O        0.30480    0.48690    0.72110    1.000
    O15      O        0.44290    0.50420    0.68410    1.000
    O16      O        0.24730    0.41900    0.07090    1.000
    O17      O        0.07080    0.25900    0.01370    1.000
    N13      N        0.35810    0.29180    0.65520    1.000
    O18      O        0.45130    0.57580    0.51200    1.000
    O19      O        0.14150    0.32610    0.67310    1.000
    N14      N        0.27820    0.37880    0.45470    1.000
    N15      N        0.53600    0.88530    0.21650    1.000
    N16      N        0.22010    0.13730    0.28700    1.000
    N17      N        0.18410    0.28600    0.26010    1.000
    N18      N        0.65880    0.02790    0.59570    1.000
    N19      N        0.58600    0.95560    0.89990    1.000
    N20      N        0.24950    0.36770    0.28470    1.000
    N21      N        0.20780    0.29910    0.42850    1.000
    N22      N        0.28180    0.21780    0.00840    1.000
    N23      N        0.25640    0.34820    0.54790    1.000
    C77      C        0.47950    0.19000    0.63780    1.000
    C78      C        0.36670    0.76630    0.81950    1.000
    H47      H        0.32000    0.79340    0.82690    1.000
    N24      N        0.20910    0.31080    0.16280    1.000
    O20      O        0.06210    0.13980    0.02340    1.000
    C79      C        0.37030    0.25030    0.99800    1.000
    H48      H        0.39250    0.30970    0.00800    1.000
    O21      O        0.39070    0.43660    0.11500    1.000
    C80      C        0.44710    0.32810    0.68620    1.000
    H49      H        0.47020    0.38960    0.71400    1.000
    C81      C        0.46050    0.70930    0.50660    1.000
    C82      C        0.52840    0.89470    0.55950    1.000
    C83      C        0.50940    0.27960    0.68000    1.000
    H50      H        0.57140    0.30880    0.70480    1.000
    C84      C        0.38700    0.53450    0.72120    1.000
    O22      O        0.12760    0.19350    0.58400    1.000
    C85      C        0.58970    0.84800    0.56210    1.000
    H51      H        0.65350    0.87790    0.58090    1.000
    C86      C        0.43340    0.84860    0.52970    1.000
    H52      H        0.39170    0.87900    0.52880    1.000
    C87      C        0.50630    0.04460    0.60320    1.000
    H53      H        0.44190    0.01880    0.59820    1.000
    C88      C        0.40900    0.98270    0.24010    1.000
    C89      C        0.55460    0.75680    0.53640    1.000
    H54      H        0.59560    0.72640    0.53930    1.000
    C90      C        0.42900    0.96580    0.90450    1.000
    H55      H        0.36450    0.93720    0.89500    1.000
    C91      C        0.25100    0.00160    0.26180    1.000
    H56      H        0.22880    0.94400    0.25650    1.000
    C92      C        0.46450    0.05790    0.93680    1.000
    C93      C        0.56520    0.99200    0.58710    1.000
    C94      C        0.26280    0.37980    0.22550    1.000
    H57      H        0.30470    0.43070    0.22690    1.000
    C95      C        0.63890    0.17190    0.63810    1.000
    H58      H        0.66620    0.23290    0.65640    1.000
    C96      C        0.19240    0.05320    0.27700    1.000
    H59      H        0.13060    0.02850    0.28030    1.000
    C97      C        0.34330    0.67320    0.77910    1.000
    H60      H        0.28070    0.63880    0.75890    1.000
    C98      C        0.44220    0.84380    0.19760    1.000
    C99      C        0.72450    0.08180    0.94410    1.000
    C100     C        0.54330    0.13560    0.62660    1.000
    C101     C        0.41090    0.74530    0.16620    1.000
    C102     C        0.41090    0.63300    0.76920    1.000
    C103     C        0.49280    0.91600    0.88610    1.000
    C104     C        0.50650    0.02510    0.25880    1.000
    H61      H        0.53070    0.08670    0.27960    1.000
    C105     C        0.42250    0.61080    0.47830    1.000
    C106     C        0.46080    0.81710    0.84830    1.000
    C107     C        0.25400    0.13230    0.99200    1.000
    H62      H        0.19310    0.10740    0.99700    1.000
    C108     C        0.37640    0.89050    0.20720    1.000
    H63      H        0.31220    0.85990    0.19170    1.000
    C109     C        0.16200    0.25670    0.18930    1.000
    H64      H        0.11690    0.20230    0.15900    1.000
    C110     C        0.38700    0.15210    0.60180    1.000
    H65      H        0.36390    0.09130    0.57050    1.000
    C111     C        0.30940    0.17020    0.28020    1.000
    H66      H        0.33070    0.22840    0.28680    1.000
    C112     C        0.37050    0.12100    0.26360    1.000
    H67      H        0.43110    0.14640    0.25840    1.000
    C113     C        0.30510    0.40470    0.52510    1.000
    H68      H        0.35300    0.45690    0.55580    1.000
    C114     C        0.19730    0.28340    0.48570    1.000
    H69      H        0.15390    0.23290    0.48360    1.000
    C115     C        0.56100    0.09740    0.94940    1.000
    H70      H        0.58660    0.15890    0.96980    1.000
    C116     C        0.52780    0.77350    0.83960    1.000
    H71      H        0.59050    0.80680    0.86040    1.000
    C117     C        0.34380    0.03540    0.25450    1.000
    C118     C        0.32030    0.69690    0.16370    1.000
    H72      H        0.27660    0.72640    0.18060    1.000
    C119     C        0.61960    0.04380    0.93100    1.000
    C120     C        0.56670    0.97430    0.24590    1.000
    C121     C        0.92030    0.14700    0.97780    1.000
    C122     C        0.69610    0.11600    0.62200    1.000
    C123     C        0.42840    0.19870    0.97310    1.000
    H73      H        0.48820    0.22380    0.96630    1.000
    C124     C        0.47620    0.70060    0.14490    1.000
    H74      H        0.53800    0.73160    0.14670    1.000
    C125     C        0.86620    0.20470    0.98910    1.000
    H75      H        0.89650    0.26520    0.00700    1.000
    C126     C        0.40150    0.75620    0.50110    1.000
    H76      H        0.33910    0.72520    0.47780    1.000
    C127     C        0.50380    0.68340    0.80140    1.000
    H77      H        0.54980    0.65570    0.79690    1.000
    C128     C        0.77960    0.02860    0.92640    1.000
    H78      H        0.75050    0.96750    0.90000    1.000
    C129     C        0.32790    0.20330    0.61160    1.000
    H79      H        0.26560    0.17580    0.58740    1.000
    C130     C        0.29340    0.60720    0.13720    1.000
    H80      H        0.23090    0.57640    0.13370    1.000
    C131     C        0.44840    0.60760    0.12020    1.000
    H81      H        0.49270    0.57790    0.10720    1.000
    C132     C        0.76960    0.17300    0.97430    1.000
    H82      H        0.73470    0.21190    0.98420    1.000
    C133     C        0.30900    0.07830    0.96800    1.000
    H83      H        0.28550    0.01900    0.95830    1.000
    C134     C        0.09670    0.24840    0.63690    1.000
    C135     C        0.39950    0.11150    0.95830    1.000
    C136     C        0.35670    0.56090    0.11530    1.000
    C137     C        0.87510    0.05950    0.94520    1.000
    H84      H        0.90900    0.01970    0.93530    1.000
    C138     C        0.33000    0.46650    0.09650    1.000
    C139     C        0.02640    0.18530    0.00660    1.000
    C140     C        0.86590    0.09750    0.31200    1.000
    C141     C        0.81000    0.13700    0.28970    1.000
    H85      H        0.83760    0.18990    0.28750    1.000
    C142     C        0.71290    0.09730    0.27080    1.000
    H86      H        0.67550    0.12370    0.25590    1.000
    C143     C        0.67180    0.01820    0.27410    1.000
    C144     C        0.72770    0.97870    0.29640    1.000
    H87      H        0.70010    0.92580    0.29860    1.000
    C145     C        0.82470    0.01840    0.31530    1.000
    H88      H        0.86210    0.99190    0.33020    1.000
    O23      O        0.00730    0.19360    0.30760    1.000
    O24      O        0.02490    0.11330    0.35880    1.000
    C146     C        0.97040    0.13550    0.32330    1.000
    C147     C        0.94480    0.12430    0.59620    1.000
    H89      H        0.97670    0.08490    0.57080    1.000
    C148     C        0.84830    0.09320    0.59280    1.000
    H90      H        0.81560    0.03300    0.56510    1.000
    C149     C        0.80070    0.15220    0.63070    1.000
    C150     C        0.84960    0.24220    0.67200    1.000
    H91      H        0.81780    0.28160    0.69740    1.000
    C151     C        0.94610    0.27330    0.67550    1.000
    H92      H        0.97890    0.33360    0.70310    1.000
    C152     C        0.99370    0.21440    0.63750    1.000
