# CIF file generated by openbabel 3.1.0, see https://openbabel.org
data_I
_chemical_name_common 'image0'
_cell_length_a 9.9493
_cell_length_b 15.2347
_cell_length_c 10.8891
_cell_angle_alpha 90
_cell_angle_beta 107.253
_cell_angle_gamma 90
_space_group_name_H-M_alt 'P 1'
_space_group_name_Hall 'P 1'
loop_
    _symmetry_equiv_pos_as_xyz
    x,y,z
loop_
    _atom_site_label
    _atom_site_type_symbol
    _atom_site_fract_x
    _atom_site_fract_y
    _atom_site_fract_z
    _atom_site_occupancy
    Zn1      Zn       0.31091    0.19430    0.05955    1.000
    C1       C        0.15210    0.34140    0.97830    1.000
    C2       C        0.06760    0.42080    0.98930    1.000
    C3       C        0.09080    0.46220    0.10640    1.000
    H1       H        0.15200    0.43610    0.17870    1.000
    C4       C        0.97280    0.45870    0.87850    1.000
    C5       C        0.93290    0.41760    0.74910    1.000
    C6       C        0.07350    0.13750    0.83980    1.000
    H2       H        0.02330    0.17910    0.87070    1.000
    C7       C        0.00990    0.09670    0.72400    1.000
    H3       H        0.91700    0.11000    0.67950    1.000
    C8       C        0.08270    0.03630    0.67310    1.000
    C9       C        0.21850    0.01700    0.74810    1.000
    H4       H        0.27080    0.97450    0.72130    1.000
    C10      C        0.27440    0.05990    0.85970    1.000
    H5       H        0.36740    0.04790    0.90550    1.000
    C11      C        0.02880    0.99390    0.54660    1.000
    O1       O        0.18430    0.29050    0.07490    1.000
    O2       O        0.19190    0.33150    0.88250    1.000
    O3       O        0.87860    0.34120    0.74050    1.000
    O4       O        0.94400    0.45940    0.65630    1.000
    N1       N        0.20510    0.11860    0.90870    1.000
    Zn2      Zn       0.18909    0.69430    0.44045    1.000
    C12      C        0.34790    0.84140    0.52170    1.000
    C13      C        0.43240    0.92080    0.51070    1.000
    C14      C        0.40920    0.96220    0.39360    1.000
    H6       H        0.34800    0.93610    0.32130    1.000
    C15      C        0.52720    0.95870    0.62150    1.000
    C16      C        0.56710    0.91760    0.75090    1.000
    C17      C        0.42650    0.63750    0.66020    1.000
    H7       H        0.47670    0.67910    0.62930    1.000
    C18      C        0.49010    0.59670    0.77600    1.000
    H8       H        0.58300    0.61000    0.82050    1.000
    C19      C        0.41730    0.53630    0.82690    1.000
    C20      C        0.28150    0.51700    0.75190    1.000
    H9       H        0.22920    0.47450    0.77870    1.000
    C21      C        0.22560    0.55990    0.64030    1.000
    H10      H        0.13260    0.54790    0.59450    1.000
    C22      C        0.47120    0.49390    0.95340    1.000
    O5       O        0.31570    0.79050    0.42510    1.000
    O6       O        0.30810    0.83150    0.61750    1.000
    O7       O        0.62140    0.84120    0.75950    1.000
    O8       O        0.55600    0.95940    0.84370    1.000
    N2       N        0.29490    0.61860    0.59130    1.000
    Zn3      Zn       0.68909    0.80570    0.94045    1.000
    C23      C        0.84790    0.65860    0.02170    1.000
    C24      C        0.93240    0.57920    0.01070    1.000
    C25      C        0.90920    0.53780    0.89360    1.000
    H11      H        0.84800    0.56390    0.82130    1.000
    C26      C        0.02720    0.54130    0.12150    1.000
    C27      C        0.06710    0.58240    0.25090    1.000
    C28      C        0.92650    0.86250    0.16020    1.000
    H12      H        0.97670    0.82090    0.12930    1.000
    C29      C        0.99010    0.90330    0.27600    1.000
    H13      H        0.08300    0.89000    0.32050    1.000
    C30      C        0.91730    0.96370    0.32690    1.000
    C31      C        0.78150    0.98300    0.25190    1.000
    H14      H        0.72920    0.02550    0.27870    1.000
    C32      C        0.72560    0.94010    0.14030    1.000
    H15      H        0.63260    0.95210    0.09450    1.000
    C33      C        0.97120    0.00610    0.45340    1.000
    O9       O        0.81570    0.70950    0.92510    1.000
    O10      O        0.80810    0.66850    0.11750    1.000
    O11      O        0.12140    0.65880    0.25950    1.000
    O12      O        0.05600    0.54060    0.34370    1.000
    N3       N        0.79490    0.88140    0.09130    1.000
    Zn4      Zn       0.81091    0.30570    0.55955    1.000
    C34      C        0.65210    0.15860    0.47830    1.000
    C35      C        0.56760    0.07920    0.48930    1.000
    C36      C        0.59080    0.03780    0.60640    1.000
    H16      H        0.65200    0.06390    0.67870    1.000
    C37      C        0.47280    0.04130    0.37850    1.000
    C38      C        0.43290    0.08240    0.24910    1.000
    C39      C        0.57350    0.36250    0.33980    1.000
    H17      H        0.52330    0.32090    0.37070    1.000
    C40      C        0.50990    0.40330    0.22400    1.000
    H18      H        0.41700    0.39000    0.17950    1.000
    C41      C        0.58270    0.46370    0.17310    1.000
    C42      C        0.71850    0.48300    0.24810    1.000
    H19      H        0.77080    0.52550    0.22130    1.000
    C43      C        0.77440    0.44010    0.35970    1.000
    H20      H        0.86740    0.45210    0.40550    1.000
    C44      C        0.52880    0.50610    0.04660    1.000
    O13      O        0.68430    0.20950    0.57490    1.000
    O14      O        0.69190    0.16850    0.38250    1.000
    O15      O        0.37860    0.15880    0.24050    1.000
    O16      O        0.44400    0.04060    0.15630    1.000
    N4       N        0.70510    0.38140    0.40870    1.000
