# CIF file generated by openbabel 3.1.0, see https://openbabel.org
data_I
_chemical_name_common 'image0'
_cell_length_a 11.6896
_cell_length_b 11.6896
_cell_length_c 9.2357
_cell_angle_alpha 90
_cell_angle_beta 90
_cell_angle_gamma 90
_space_group_name_H-M_alt 'P 1'
_space_group_name_Hall 'P 1'
loop_
    _symmetry_equiv_pos_as_xyz
    x,y,z
loop_
    _atom_site_label
    _atom_site_type_symbol
    _atom_site_fract_x
    _atom_site_fract_y
    _atom_site_fract_z
    _atom_site_occupancy
    Bi1      Bi       0.00000    0.75000    0.12500    1.000
    Bi2      Bi       0.50000    0.25000    0.62500    1.000
    Bi3      Bi       0.50000    0.75000    0.37500    1.000
    Bi4      Bi       0.00000    0.25000    0.87500    1.000
    O1       O        0.00000    0.62620    0.90900    1.000
    O2       O        0.00000    0.45360    0.82000    1.000
    C1       C        0.00000    0.51900    0.92300    1.000
    O3       O        0.50000    0.12620    0.40900    1.000
    O4       O        0.50000    0.95360    0.32000    1.000
    C2       C        0.50000    0.01900    0.42300    1.000
    O5       O        0.50000    0.37380    0.40900    1.000
    O6       O        0.50000    0.54640    0.32000    1.000
    C3       C        0.50000    0.48100    0.42300    1.000
    O7       O        0.00000    0.87380    0.90900    1.000
    O8       O        0.00000    0.04640    0.82000    1.000
    C4       C        0.00000    0.98100    0.92300    1.000
    O9       O        0.62380    0.75000    0.15900    1.000
    O10      O        0.79640    0.75000    0.07000    1.000
    C5       C        0.73100    0.75000    0.17300    1.000
    O11      O        0.87620    0.25000    0.65900    1.000
    O12      O        0.70360    0.25000    0.57000    1.000
    C6       C        0.76900    0.25000    0.67300    1.000
    O13      O        0.50000    0.62620    0.59100    1.000
    O14      O        0.50000    0.45360    0.68000    1.000
    C7       C        0.50000    0.51900    0.57700    1.000
    O15      O        0.00000    0.12620    0.09100    1.000
    O16      O        0.00000    0.95360    0.18000    1.000
    C8       C        0.00000    0.01900    0.07700    1.000
    O17      O        0.00000    0.37380    0.09100    1.000
    O18      O        0.00000    0.54640    0.18000    1.000
    C9       C        0.00000    0.48100    0.07700    1.000
    O19      O        0.50000    0.87380    0.59100    1.000
    O20      O        0.50000    0.04640    0.68000    1.000
    C10      C        0.50000    0.98100    0.57700    1.000
    O21      O        0.87620    0.75000    0.34100    1.000
    O22      O        0.70360    0.75000    0.43000    1.000
    C11      C        0.76900    0.75000    0.32700    1.000
    O23      O        0.62380    0.25000    0.84100    1.000
    O24      O        0.79640    0.25000    0.93000    1.000
    C12      C        0.73100    0.25000    0.82700    1.000
    O25      O        0.37620    0.25000    0.84100    1.000
    O26      O        0.20360    0.25000    0.93000    1.000
    C13      C        0.26900    0.25000    0.82700    1.000
    O27      O        0.12380    0.75000    0.34100    1.000
    O28      O        0.29640    0.75000    0.43000    1.000
    C14      C        0.23100    0.75000    0.32700    1.000
    O29      O        0.12380    0.25000    0.65900    1.000
    O30      O        0.29640    0.25000    0.57000    1.000
    C15      C        0.23100    0.25000    0.67300    1.000
    O31      O        0.37620    0.75000    0.15900    1.000
    O32      O        0.20360    0.75000    0.07000    1.000
    C16      C        0.26900    0.75000    0.17300    1.000
