# CIF file generated by openbabel 3.1.0, see https://openbabel.org
data_I
_chemical_name_common 'image0'
_cell_length_a 7.8401
_cell_length_b 10.3176
_cell_length_c 15.8809
_cell_angle_alpha 90
_cell_angle_beta 90
_cell_angle_gamma 90
_space_group_name_H-M_alt 'P 1'
_space_group_name_Hall 'P 1'
loop_
    _symmetry_equiv_pos_as_xyz
    x,y,z
loop_
    _atom_site_label
    _atom_site_type_symbol
    _atom_site_fract_x
    _atom_site_fract_y
    _atom_site_fract_z
    _atom_site_occupancy
    Mn1      Mn       0.35574    0.02704    0.46966    1.000
    O1       O        0.84990    0.85930    0.92261    1.000
    O2       O        0.96610    0.66380    0.91519    1.000
    O3       O        0.93190    0.42267    0.01617    1.000
    O4       O        0.66570    0.36470    0.04215    1.000
    N1       N        0.38420    0.92410    0.34353    1.000
    N2       N        0.68340    0.79910    0.06908    1.000
    N3       N        0.63020    0.60760    0.12522    1.000
    H1       H        0.58790    0.55000    0.15830    1.000
    C1       C        0.45040    0.99100    0.27940    1.000
    H2       H        0.44910    0.08100    0.28240    1.000
    C2       C        0.52040    0.93390    0.20903    1.000
    H3       H        0.56720    0.98460    0.16640    1.000
    C3       C        0.52030    0.79980    0.20250    1.000
    C4       C        0.44610    0.73010    0.26744    1.000
    H4       H        0.44000    0.64020    0.26470    1.000
    C5       C        0.38150    0.79500    0.33610    1.000
    H5       H        0.33350    0.74670    0.37950    1.000
    C6       C        0.60690    0.73740    0.13149    1.000
    C7       C        0.76590    0.70460    0.02278    1.000
    C8       C        0.73220    0.58430    0.05765    1.000
    C9       C        0.78160    0.44690    0.03549    1.000
    C10      C        0.86760    0.74430    0.94821    1.000
    Mn2      Mn       0.64426    0.97296    0.96966    1.000
    O5       O        0.15010    0.14070    0.42261    1.000
    O6       O        0.03390    0.33620    0.41519    1.000
    O7       O        0.06810    0.57733    0.51617    1.000
    O8       O        0.33430    0.63530    0.54215    1.000
    N4       N        0.61580    0.07590    0.84353    1.000
    N5       N        0.31660    0.20090    0.56908    1.000
    N6       N        0.36980    0.39240    0.62522    1.000
    H6       H        0.41210    0.45000    0.65830    1.000
    C11      C        0.54960    0.00900    0.77940    1.000
    H7       H        0.55090    0.91900    0.78240    1.000
    C12      C        0.47960    0.06610    0.70903    1.000
    H8       H        0.43280    0.01540    0.66640    1.000
    C13      C        0.47970    0.20020    0.70250    1.000
    C14      C        0.55390    0.26990    0.76744    1.000
    H9       H        0.56000    0.35980    0.76470    1.000
    C15      C        0.61850    0.20500    0.83610    1.000
    H10      H        0.66650    0.25330    0.87950    1.000
    C16      C        0.39310    0.26260    0.63149    1.000
    C17      C        0.23410    0.29540    0.52278    1.000
    C18      C        0.26780    0.41570    0.55765    1.000
    C19      C        0.21840    0.55310    0.53549    1.000
    C20      C        0.13240    0.25570    0.44821    1.000
    Mn3      Mn       0.85574    0.47296    0.46966    1.000
    O9       O        0.34990    0.64070    0.92261    1.000
    O10      O        0.46610    0.83620    0.91519    1.000
    O11      O        0.43190    0.07733    0.01617    1.000
    O12      O        0.16570    0.13530    0.04215    1.000
    N7       N        0.88420    0.57590    0.34353    1.000
    N8       N        0.18340    0.70090    0.06908    1.000
    N9       N        0.13020    0.89240    0.12522    1.000
    H11      H        0.08790    0.95000    0.15830    1.000
    C21      C        0.95040    0.50900    0.27940    1.000
    H12      H        0.94910    0.41900    0.28240    1.000
    C22      C        0.02040    0.56610    0.20903    1.000
    H13      H        0.06720    0.51540    0.16640    1.000
    C23      C        0.02030    0.70020    0.20250    1.000
    C24      C        0.94610    0.76990    0.26744    1.000
    H14      H        0.94000    0.85980    0.26470    1.000
    C25      C        0.88150    0.70500    0.33610    1.000
    H15      H        0.83350    0.75330    0.37950    1.000
    C26      C        0.10690    0.76260    0.13149    1.000
    C27      C        0.26590    0.79540    0.02278    1.000
    C28      C        0.23220    0.91570    0.05765    1.000
    C29      C        0.28160    0.05310    0.03549    1.000
    C30      C        0.36760    0.75570    0.94821    1.000
    Mn4      Mn       0.14426    0.52704    0.96966    1.000
    O13      O        0.65010    0.35930    0.42261    1.000
    O14      O        0.53390    0.16380    0.41519    1.000
    O15      O        0.56810    0.92267    0.51617    1.000
    O16      O        0.83430    0.86470    0.54215    1.000
    N10      N        0.11580    0.42410    0.84353    1.000
    N11      N        0.81660    0.29910    0.56908    1.000
    N12      N        0.86980    0.10760    0.62522    1.000
    H16      H        0.91210    0.05000    0.65830    1.000
    C31      C        0.04960    0.49100    0.77940    1.000
    H17      H        0.05090    0.58100    0.78240    1.000
    C32      C        0.97960    0.43390    0.70903    1.000
    H18      H        0.93280    0.48460    0.66640    1.000
    C33      C        0.97970    0.29980    0.70250    1.000
    C34      C        0.05390    0.23010    0.76744    1.000
    H19      H        0.06000    0.14020    0.76470    1.000
    C35      C        0.11850    0.29500    0.83610    1.000
    H20      H        0.16650    0.24670    0.87950    1.000
    C36      C        0.89310    0.23740    0.63149    1.000
    C37      C        0.73410    0.20460    0.52278    1.000
    C38      C        0.76780    0.08430    0.55765    1.000
    C39      C        0.71840    0.94690    0.53549    1.000
    C40      C        0.63240    0.24430    0.44821    1.000
