# CIF file generated by openbabel 3.1.0, see https://openbabel.org
data_I
_chemical_name_common 'SONTAR_clean5b'
_cell_length_a 10.4951
_cell_length_b 11.3396
_cell_length_c 12.7954
_cell_angle_alpha 100.73
_cell_angle_beta 110.142
_cell_angle_gamma 99.732
_space_group_name_H-M_alt 'P 1'
_space_group_name_Hall 'P 1'
loop_
    _symmetry_equiv_pos_as_xyz
    x,y,z
loop_
    _atom_site_label
    _atom_site_type_symbol
    _atom_site_fract_x
    _atom_site_fract_y
    _atom_site_fract_z
    _atom_site_occupancy
    Pr1      Pr       0.61101    0.57328    0.63661    1.000
    Pr2      Pr       0.40060    0.44496    0.34263    1.000
    H3       H        0.90966    0.64500    0.59562    1.000
    H4       H        0.53805    0.88904    0.34098    1.000
    H5       H        0.10046    0.80161    0.96413    1.000
    H6       H        0.36267    0.81398    0.63298    1.000
    H7       H        0.41785    0.96218    0.73430    1.000
    H8       H        0.63947    0.88436    0.87684    1.000
    H9       H        0.67849    0.03157    0.97503    1.000
    H10      H        0.09073    0.35530    0.37794    1.000
    H11      H        0.48285    0.14666    0.67487    1.000
    H12      H        0.91494    0.14787    0.09826    1.000
    H13      H        0.27336    0.66409    0.75352    1.000
    H14      H        0.14387    0.74935    0.73186    1.000
    C15      C        0.69614    0.47976    0.41053    1.000
    C16      C        0.85248    0.49025    0.44967    1.000
    C17      C        0.90754    0.40887    0.38980    1.000
    C18      C        0.94871    0.58123    0.54837    1.000
    C19      C        0.49127    0.75608    0.48619    1.000
    C20      C        0.48341    0.88599    0.48864    1.000
    C21      C        0.46792    0.96119    0.58380    1.000
    C22      C        0.52271    0.94340    0.41273    1.000
    C23      C        0.81132    0.74278    0.84687    1.000
    C24      C        0.90909    0.85804    0.94712    1.000
    C25      C        0.86034    0.96047    0.98862    1.000
    C26      C        0.05673    0.87466    0.99383    1.000
    C27      C        0.30879    0.52468    0.56090    1.000
    C28      C        0.15131    0.51082    0.52635    1.000
    C29      C        0.09487    0.59033    0.58938    1.000
    C30      C        0.05379    0.41943    0.42708    1.000
    C31      C        0.53794    0.27798    0.53276    1.000
    C32      C        0.53848    0.14725    0.52845    1.000
    C33      C        0.54850    0.07241    0.43181    1.000
    C34      C        0.49841    0.09073    0.60397    1.000
    C35      C        0.20589    0.21135    0.20187    1.000
    C36      C        0.10352    0.08742    0.11800    1.000
    C37      C        0.15081    0.98486    0.07819    1.000
    C38      C        0.95637    0.07172    0.07129    1.000
    N39      N        0.41648    0.90700    0.65863    1.000
    N40      N        0.71400    0.95736    0.94372    1.000
    N41      N        0.18174    0.67850    0.69768    1.000
    O42      O        0.62913    0.55198    0.46092    1.000
    O43      O        0.60814    0.40985    0.32234    1.000
    O44      O        0.56576    0.74386    0.58457    1.000
    O45      O        0.42901    0.66546    0.39131    1.000
    O46      O        0.83528    0.70308    0.75792    1.000
    O47      O        0.69115    0.68087    0.83490    1.000
    O48      O        0.37792    0.44914    0.51668    1.000
    O49      O        0.39704    0.60505    0.64000    1.000
    O50      O        0.45779    0.29272    0.43587    1.000
    O51      O        0.61068    0.36709    0.62701    1.000
    O52      O        0.17736    0.31641    0.21186    1.000
    O53      O        0.33250    0.22503    0.26879    1.000
    H54      H        0.83719    0.33672    0.31329    1.000
    H55      H        0.57584    0.11435    0.37040    1.000
    H56      H        0.26228    0.99118    0.10972    1.000
