# CIF file generated by openbabel 3.1.0, see https://openbabel.org
data_I
_chemical_name_common 'image0'
_cell_length_a 7.6569
_cell_length_b 15.241
_cell_length_c 7.6589
_cell_angle_alpha 90
_cell_angle_beta 92.74
_cell_angle_gamma 90
_space_group_name_H-M_alt 'P 1'
_space_group_name_Hall 'P 1'
loop_
    _symmetry_equiv_pos_as_xyz
    x,y,z
loop_
    _atom_site_label
    _atom_site_type_symbol
    _atom_site_fract_x
    _atom_site_fract_y
    _atom_site_fract_z
    _atom_site_occupancy
    Zn1      Zn       0.19340    0.30000    0.90660    1.000
    Zn2      Zn       0.91850    0.29540    0.21000    1.000
    Zn3      Zn       0.19320    0.45600    0.19200    1.000
    Zn4      Zn       0.87930    0.43570    0.90310    1.000
    P1       P        0.07760    0.38260    0.55660    1.000
    P2       P        0.99840    0.12560    0.98840    1.000
    P3       P        0.54480    0.36200    0.08280    1.000
    O1       O        0.04800    0.37150    0.05500    1.000
    O2       O        0.42200    0.28500    0.03300    1.000
    O3       O        0.23100    0.35720    0.68600    1.000
    O4       O        0.07200    0.18960    0.85900    1.000
    O5       O        0.02300    0.30160    0.44700    1.000
    O6       O        0.67400    0.32890    0.23200    1.000
    O7       O        0.93100    0.17300    0.14800    1.000
    O8       O        0.13300    0.45670    0.43500    1.000
    O9       O        0.84500    0.07510    0.89400    1.000
    O10      O        0.44100    0.44110    0.15600    1.000
    O11      O        0.64300    0.38920    0.92300    1.000
    O12      O        0.92000    0.41560    0.65400    1.000
    O13      O        0.14300    0.06030    0.04700    1.000
    Zn5      Zn       0.80660    0.80000    0.09340    1.000
    Zn6      Zn       0.08150    0.79540    0.79000    1.000
    Zn7      Zn       0.80680    0.95600    0.80800    1.000
    Zn8      Zn       0.12070    0.93570    0.09690    1.000
    P4       P        0.92240    0.88260    0.44340    1.000
    P5       P        0.00160    0.62560    0.01160    1.000
    P6       P        0.45520    0.86200    0.91720    1.000
    O14      O        0.95200    0.87150    0.94500    1.000
    O15      O        0.57800    0.78500    0.96700    1.000
    O16      O        0.76900    0.85720    0.31400    1.000
    O17      O        0.92800    0.68960    0.14100    1.000
    O18      O        0.97700    0.80160    0.55300    1.000
    O19      O        0.32600    0.82890    0.76800    1.000
    O20      O        0.06900    0.67300    0.85200    1.000
    O21      O        0.86700    0.95670    0.56500    1.000
    O22      O        0.15500    0.57510    0.10600    1.000
    O23      O        0.55900    0.94110    0.84400    1.000
    O24      O        0.35700    0.88920    0.07700    1.000
    O25      O        0.08000    0.91560    0.34600    1.000
    O26      O        0.85700    0.56030    0.95300    1.000
