# CIF file generated by openbabel 3.1.0, see https://openbabel.org
data_I
_chemical_name_common 'fcu_sym_12_mc_11__L_24'
_cell_length_a 26.783
_cell_length_b 26.783
_cell_length_c 26.783
_cell_angle_alpha 90
_cell_angle_beta 90
_cell_angle_gamma 90
_space_group_name_H-M_alt 'P 1'
_space_group_name_Hall 'P 1'
loop_
    _symmetry_equiv_pos_as_xyz
    x,y,z
loop_
    _atom_site_label
    _atom_site_type_symbol
    _atom_site_fract_x
    _atom_site_fract_y
    _atom_site_fract_z
    _atom_site_occupancy
    O1       O        0.87103    0.06840    0.00201    1.000
    O2       O        0.12915    0.06807    0.99810    1.000
    O3       O        0.99813    0.12907    0.06822    1.000
    O4       O        0.00223    0.12904    0.93177    1.000
    O5       O        0.00112    0.06814    0.87086    1.000
    O6       O        0.99883    0.06816    0.12912    1.000
    O7       O        0.06829    0.12905    0.99899    1.000
    O8       O        0.93200    0.12925    0.00105    1.000
    Zr9      Zr       0.00011    0.08839    0.00001    1.000
    O10      O        0.04543    0.04529    0.95467    1.000
    O11      O        0.95470    0.04546    0.04540    1.000
    X12      C        0.88554    0.11484    0.00225    1.000
    X13      C        0.11471    0.11455    0.99785    1.000
    X14      C        0.99782    0.11460    0.11467    1.000
    X15      C        0.00240    0.11457    0.88531    1.000
    H16      H        0.06650    0.06632    0.06639    1.000
    O17      O        0.04516    0.04503    0.04509    1.000
    H18      H        0.93369    0.06651    0.93360    1.000
    O19      O        0.95496    0.04517    0.95491    1.000
    O20      O        0.12898    0.93161    0.00201    1.000
    O21      O        0.87086    0.93195    0.99810    1.000
    O22      O        0.06816    0.99869    0.12913    1.000
    O23      O        0.06825    0.00198    0.87099    1.000
    O24      O        0.93176    0.99803    0.87099    1.000
    O25      O        0.93185    0.00133    0.12913    1.000
    O26      O        0.00188    0.87094    0.06822    1.000
    O27      O        0.99778    0.87097    0.93177    1.000
    O28      O        0.00118    0.93186    0.12912    1.000
    O29      O        0.99889    0.93188    0.87086    1.000
    O30      O        0.12909    0.99803    0.06823    1.000
    O31      O        0.87092    0.00199    0.06823    1.000
    O32      O        0.87084    0.99919    0.93189    1.000
    O33      O        0.12917    0.00083    0.93189    1.000
    O34      O        0.06801    0.87077    0.00105    1.000
    O35      O        0.93172    0.87097    0.99899    1.000
    Zr36     Zr       0.08840    0.99985    0.00003    1.000
    Zr37     Zr       0.91161    0.00016    0.00003    1.000
    Zr38     Zr       0.00000    0.00001    0.08839    1.000
    Zr39     Zr       0.00000    0.00001    0.91164    1.000
    Zr40     Zr       0.99990    0.91163    0.00001    1.000
    O41      O        0.95458    0.95472    0.95467    1.000
    O42      O        0.04531    0.95456    0.04540    1.000
    X43      C        0.11447    0.88518    0.00225    1.000
    X44      C        0.88530    0.88547    0.99785    1.000
    X45      C        0.11461    0.99766    0.11468    1.000
    X46      C        0.11471    0.00209    0.88545    1.000
    X47      C        0.88530    0.99793    0.88545    1.000
    X48      C        0.88540    0.00235    0.11468    1.000
    X49      C        0.00219    0.88542    0.11467    1.000
    X50      C        0.99761    0.88544    0.88531    1.000
    H51      H        0.93351    0.93370    0.06639    1.000
    O52      O        0.95485    0.95498    0.04509    1.000
    H53      H        0.06632    0.93350    0.93360    1.000
    O54      O        0.04505    0.95484    0.95491    1.000
    O55      O        0.37103    0.56840    0.00201    1.000
    O56      O        0.62915    0.56807    0.99810    1.000
    O57      O        0.49813    0.62907    0.06822    1.000
    O58      O        0.50223    0.62904    0.93177    1.000
    O59      O        0.50112    0.56814    0.87086    1.000
    O60      O        0.49883    0.56816    0.12912    1.000
    O61      O        0.56829    0.62905    0.99899    1.000
    O62      O        0.43200    0.62925    0.00105    1.000
    Zr63     Zr       0.50011    0.58839    0.00001    1.000
    O64      O        0.54543    0.54529    0.95467    1.000
    O65      O        0.45470    0.54546    0.04540    1.000
    X66      C        0.38554    0.61484    0.00225    1.000
    X67      C        0.61471    0.61455    0.99785    1.000
    X68      C        0.49782    0.61460    0.11467    1.000
    X69      C        0.50240    0.61457    0.88531    1.000
    H70      H        0.56650    0.56632    0.06639    1.000
    O71      O        0.54516    0.54503    0.04509    1.000
    H72      H        0.43369    0.56651    0.93360    1.000
    O73      O        0.45496    0.54517    0.95491    1.000
    O74      O        0.62898    0.43161    0.00201    1.000
    O75      O        0.37086    0.43195    0.99810    1.000
    O76      O        0.56816    0.49869    0.12913    1.000
    O77      O        0.56825    0.50198    0.87099    1.000
    O78      O        0.43176    0.49803    0.87099    1.000
    O79      O        0.43185    0.50133    0.12913    1.000
    O80      O        0.50188    0.37094    0.06822    1.000
    O81      O        0.49778    0.37097    0.93177    1.000
    O82      O        0.50118    0.43186    0.12912    1.000
    O83      O        0.49889    0.43188    0.87086    1.000
    O84      O        0.62909    0.49803    0.06823    1.000
    O85      O        0.37092    0.50199    0.06823    1.000
    O86      O        0.37084    0.49919    0.93189    1.000
    O87      O        0.62917    0.50083    0.93189    1.000
    O88      O        0.56801    0.37077    0.00105    1.000
    O89      O        0.43172    0.37097    0.99899    1.000
    Zr90     Zr       0.58840    0.49985    0.00003    1.000
    Zr91     Zr       0.41161    0.50016    0.00003    1.000
    Zr92     Zr       0.50000    0.50001    0.08839    1.000
    Zr93     Zr       0.50000    0.50001    0.91164    1.000
    Zr94     Zr       0.49990    0.41163    0.00001    1.000
    O95      O        0.45458    0.45472    0.95467    1.000
    O96      O        0.54531    0.45456    0.04540    1.000
    X97      C        0.61447    0.38518    0.00225    1.000
    X98      C        0.38530    0.38547    0.99785    1.000
    X99      C        0.61461    0.49766    0.11468    1.000
    X100     C        0.61471    0.50209    0.88545    1.000
    X101     C        0.38530    0.49793    0.88545    1.000
    X102     C        0.38540    0.50235    0.11468    1.000
    X103     C        0.50219    0.38542    0.11467    1.000
    X104     C        0.49761    0.38544    0.88531    1.000
    H105     H        0.43351    0.43370    0.06639    1.000
    O106     O        0.45485    0.45498    0.04509    1.000
    H107     H        0.56632    0.43350    0.93360    1.000
    O108     O        0.54505    0.45484    0.95491    1.000
    O109     O        0.87081    0.56800    0.50112    1.000
    O110     O        0.12904    0.56834    0.49880    1.000
    O111     O        0.99801    0.62909    0.56820    1.000
    O112     O        0.00164    0.62912    0.43178    1.000
    O113     O        0.00117    0.56818    0.37088    1.000
    O114     O        0.99890    0.56816    0.62911    1.000
    O115     O        0.06808    0.62920    0.49818    1.000
    O116     O        0.93165    0.62900    0.50181    1.000
    Zr117    Zr       0.99990    0.58841    0.49998    1.000
    O118     O        0.04531    0.54546    0.45458    1.000
    O119     O        0.95458    0.54529    0.54531    1.000
    X120     C        0.88522    0.61447    0.50219    1.000
    X121     C        0.11455    0.61476    0.49779    1.000
    X122     C        0.99773    0.61460    0.61466    1.000
    X123     C        0.00208    0.61463    0.38533    1.000
    H124     H        0.06631    0.56652    0.56638    1.000
    O125     O        0.04504    0.54518    0.54507    1.000
    H126     H        0.93351    0.56633    0.43360    1.000
    O127     O        0.95486    0.54505    0.45489    1.000
    O128     O        0.12920    0.43201    0.50112    1.000
    O129     O        0.87097    0.43168    0.49880    1.000
    O130     O        0.06823    0.49801    0.62901    1.000
    O131     O        0.06814    0.50134    0.37083    1.000
    O132     O        0.93187    0.49868    0.37083    1.000
    O133     O        0.93178    0.50200    0.62901    1.000
    O134     O        0.00200    0.37093    0.56820    1.000
    O135     O        0.99837    0.37090    0.43178    1.000
    O136     O        0.00111    0.43186    0.62911    1.000
    O137     O        0.99884    0.43183    0.37088    1.000
    O138     O        0.12914    0.49896    0.56809    1.000
    O139     O        0.87087    0.50105    0.56809    1.000
    O140     O        0.87096    0.49779    0.43173    1.000
    O141     O        0.12905    0.50223    0.43173    1.000
    O142     O        0.06836    0.37102    0.50181    1.000
    O143     O        0.93193    0.37081    0.49818    1.000
    Zr144    Zr       0.08838    0.50017    0.49994    1.000
    Zr145    Zr       0.91163    0.49985    0.49994    1.000
    Zr146    Zr       0.00000    0.50001    0.58835    1.000
    Zr147    Zr       0.00000    0.50001    0.41160    1.000
    Zr148    Zr       0.00011    0.41161    0.49998    1.000
    O149     O        0.95470    0.45455    0.45458    1.000
    O150     O        0.04543    0.45473    0.54531    1.000
    X151     C        0.11479    0.38555    0.50219    1.000
    X152     C        0.88546    0.38526    0.49779    1.000
    X153     C        0.11469    0.49782    0.61453    1.000
    X154     C        0.11457    0.50247    0.38528    1.000
    X155     C        0.88544    0.49755    0.38528    1.000
    X156     C        0.88532    0.50220    0.61453    1.000
    X157     C        0.00228    0.38542    0.61466    1.000
    X158     C        0.99793    0.38539    0.38533    1.000
    H159     H        0.93370    0.43350    0.56638    1.000
    O160     O        0.95497    0.45484    0.54507    1.000
    H161     H        0.06650    0.43369    0.43360    1.000
    O162     O        0.04515    0.45497    0.45489    1.000
    O163     O        0.37081    0.06800    0.50112    1.000
    O164     O        0.62904    0.06834    0.49880    1.000
    O165     O        0.49801    0.12909    0.56820    1.000
    O166     O        0.50164    0.12912    0.43178    1.000
    O167     O        0.50117    0.06818    0.37088    1.000
    O168     O        0.49890    0.06816    0.62911    1.000
    O169     O        0.56808    0.12920    0.49818    1.000
    O170     O        0.43165    0.12900    0.50181    1.000
    Zr171    Zr       0.49990    0.08841    0.49998    1.000
    O172     O        0.54531    0.04546    0.45458    1.000
    O173     O        0.45458    0.04529    0.54531    1.000
    X174     C        0.38522    0.11447    0.50219    1.000
    X175     C        0.61455    0.11476    0.49779    1.000
    X176     C        0.49773    0.11460    0.61466    1.000
    X177     C        0.50208    0.11463    0.38533    1.000
    H178     H        0.56631    0.06652    0.56638    1.000
    O179     O        0.54504    0.04518    0.54507    1.000
    H180     H        0.43351    0.06633    0.43360    1.000
    O181     O        0.45486    0.04505    0.45489    1.000
    O182     O        0.62920    0.93201    0.50112    1.000
    O183     O        0.37097    0.93168    0.49880    1.000
    O184     O        0.56823    0.99801    0.62901    1.000
    O185     O        0.56814    0.00134    0.37083    1.000
    O186     O        0.43187    0.99868    0.37083    1.000
    O187     O        0.43178    0.00200    0.62901    1.000
    O188     O        0.50200    0.87093    0.56820    1.000
    O189     O        0.49837    0.87090    0.43178    1.000
    O190     O        0.50111    0.93186    0.62911    1.000
    O191     O        0.49884    0.93183    0.37088    1.000
    O192     O        0.62914    0.99896    0.56809    1.000
    O193     O        0.37087    0.00105    0.56809    1.000
    O194     O        0.37096    0.99779    0.43173    1.000
    O195     O        0.62905    0.00223    0.43173    1.000
    O196     O        0.56836    0.87102    0.50181    1.000
    O197     O        0.43193    0.87081    0.49818    1.000
    Zr198    Zr       0.58838    0.00017    0.49994    1.000
    Zr199    Zr       0.41163    0.99985    0.49994    1.000
    Zr200    Zr       0.50000    0.00001    0.58835    1.000
    Zr201    Zr       0.50000    0.00001    0.41160    1.000
    Zr202    Zr       0.50011    0.91161    0.49998    1.000
    O203     O        0.45470    0.95455    0.45458    1.000
    O204     O        0.54543    0.95473    0.54531    1.000
    X205     C        0.61479    0.88555    0.50219    1.000
    X206     C        0.38546    0.88526    0.49779    1.000
    X207     C        0.61469    0.99782    0.61453    1.000
    X208     C        0.61457    0.00247    0.38528    1.000
    X209     C        0.38544    0.99755    0.38528    1.000
    X210     C        0.38532    0.00220    0.61453    1.000
    X211     C        0.50228    0.88542    0.61466    1.000
    X212     C        0.49793    0.88539    0.38533    1.000
    H213     H        0.43370    0.93350    0.56638    1.000
    O214     O        0.45497    0.95484    0.54507    1.000
    H215     H        0.56650    0.93369    0.43360    1.000
    O216     O        0.54515    0.95497    0.45489    1.000
    C217     C        0.23001    0.23004    0.99610    1.000
    C218     C        0.18004    0.24141    0.00838    1.000
    C219     C        0.14288    0.20428    0.00851    1.000
    X220     C        0.15434    0.15427    0.99693    1.000
    C221     C        0.20418    0.14274    0.98474    1.000
    C222     C        0.24127    0.17997    0.98406    1.000
    C223     C        0.27000    0.26997    0.99610    1.000
    C224     C        0.31997    0.25861    0.00838    1.000
    C225     C        0.35713    0.29573    0.00851    1.000
    X226     C        0.34567    0.34575    0.99693    1.000
    C227     C        0.29583    0.35727    0.98474    1.000
    C228     C        0.25874    0.32005    0.98406    1.000
    H229     H        0.10512    0.21477    0.01848    1.000
    H230     H        0.21458    0.10486    0.97517    1.000
    H231     H        0.39489    0.28525    0.01848    1.000
    H232     H        0.28543    0.39516    0.97517    1.000
    H233     H        0.27876    0.16938    0.97338    1.000
    H234     H        0.33048    0.22104    0.01885    1.000
    H235     H        0.16953    0.27898    0.01885    1.000
    H236     H        0.22125    0.33063    0.97338    1.000
    C237     C        0.23004    0.73002    0.49602    1.000
    C238     C        0.18000    0.74127    0.48386    1.000
    C239     C        0.14277    0.70419    0.48453    1.000
    X240     C        0.15427    0.65437    0.49687    1.000
    C241     C        0.20425    0.64293    0.50859    1.000
    C242     C        0.24138    0.68008    0.50844    1.000
    C243     C        0.26997    0.76999    0.49602    1.000
    C244     C        0.32001    0.75875    0.48386    1.000
    C245     C        0.35724    0.79583    0.48453    1.000
    X246     C        0.34574    0.84564    0.49687    1.000
    C247     C        0.29576    0.85709    0.50859    1.000
    C248     C        0.25863    0.81993    0.50844    1.000
    H249     H        0.10491    0.71456    0.47483    1.000
    H250     H        0.21470    0.60519    0.51869    1.000
    H251     H        0.39510    0.78546    0.47483    1.000
    H252     H        0.28531    0.89482    0.51869    1.000
    H253     H        0.27894    0.66960    0.51899    1.000
    H254     H        0.33056    0.72127    0.47309    1.000
    H255     H        0.16945    0.77875    0.47309    1.000
    H256     H        0.22107    0.83042    0.51899    1.000
    C257     C        0.77000    0.76997    0.99610    1.000
    C258     C        0.75874    0.82005    0.98406    1.000
    C259     C        0.79583    0.85727    0.98474    1.000
    X260     C        0.84567    0.84575    0.99693    1.000
    C261     C        0.85713    0.79573    0.00851    1.000
    C262     C        0.81997    0.75861    0.00838    1.000
    C263     C        0.73001    0.73004    0.99610    1.000
    C264     C        0.74127    0.67997    0.98406    1.000
    C265     C        0.70418    0.64274    0.98474    1.000
    X266     C        0.65434    0.65427    0.99693    1.000
    C267     C        0.64288    0.70428    0.00851    1.000
    C268     C        0.68004    0.74141    0.00838    1.000
    H269     H        0.78543    0.89516    0.97517    1.000
    H270     H        0.89489    0.78525    0.01848    1.000
    H271     H        0.71458    0.60486    0.97517    1.000
    H272     H        0.60512    0.71477    0.01848    1.000
    H273     H        0.83048    0.72104    0.01885    1.000
    H274     H        0.77876    0.66938    0.97338    1.000
    H275     H        0.72125    0.83063    0.97338    1.000
    H276     H        0.66953    0.77898    0.01885    1.000
    C277     C        0.76997    0.26999    0.49602    1.000
    C278     C        0.75863    0.31993    0.50844    1.000
    C279     C        0.79576    0.35709    0.50859    1.000
    X280     C        0.84574    0.34564    0.49687    1.000
    C281     C        0.85724    0.29583    0.48453    1.000
    C282     C        0.82001    0.25875    0.48386    1.000
    C283     C        0.73004    0.23002    0.49602    1.000
    C284     C        0.74138    0.18008    0.50844    1.000
    C285     C        0.70425    0.14293    0.50859    1.000
    X286     C        0.65427    0.15438    0.49687    1.000
    C287     C        0.64277    0.20419    0.48453    1.000
    C288     C        0.68000    0.24127    0.48386    1.000
    H289     H        0.78531    0.39482    0.51869    1.000
    H290     H        0.89510    0.28546    0.47483    1.000
    H291     H        0.71470    0.10519    0.51869    1.000
    H292     H        0.60491    0.21456    0.47483    1.000
    H293     H        0.83056    0.22127    0.47309    1.000
    H294     H        0.77894    0.16960    0.51899    1.000
    H295     H        0.72107    0.33042    0.51899    1.000
    H296     H        0.66945    0.27875    0.47309    1.000
    C297     C        0.77005    0.23011    0.00412    1.000
    C298     C        0.75893    0.18003    0.01622    1.000
    C299     C        0.79610    0.14290    0.01554    1.000
    X300     C        0.84590    0.15453    0.00327    1.000
    C301     C        0.85725    0.20455    0.99163    1.000
    C302     C        0.81999    0.24159    0.99178    1.000
    C303     C        0.72996    0.26991    0.00412    1.000
    C304     C        0.74108    0.31999    0.01622    1.000
    C305     C        0.70391    0.35711    0.01554    1.000
    X306     C        0.65411    0.34548    0.00327    1.000
    C307     C        0.64276    0.29546    0.99163    1.000
    C308     C        0.68002    0.25843    0.99178    1.000
    H309     H        0.78579    0.10501    0.02518    1.000
    H310     H        0.89497    0.21510    0.98161    1.000
    H311     H        0.71422    0.39501    0.02518    1.000
    H312     H        0.60504    0.28491    0.98161    1.000
    H313     H        0.83039    0.27918    0.98128    1.000
    H314     H        0.77854    0.33065    0.02695    1.000
    H315     H        0.72147    0.16936    0.02695    1.000
    H316     H        0.66962    0.22084    0.98128    1.000
    C317     C        0.76991    0.72996    0.50402    1.000
    C318     C        0.75845    0.68003    0.49164    1.000
    C319     C        0.79550    0.64277    0.49150    1.000
    X320     C        0.84551    0.65411    0.50319    1.000
    C321     C        0.85712    0.70391    0.51550    1.000
    C322     C        0.81998    0.74109    0.51616    1.000
    C323     C        0.73010    0.77005    0.50402    1.000
    C324     C        0.74156    0.81998    0.49164    1.000
    C325     C        0.70451    0.85724    0.49150    1.000
    X326     C        0.65450    0.84591    0.50319    1.000
    C327     C        0.64289    0.79610    0.51550    1.000
    C328     C        0.68003    0.75893    0.51616    1.000
    H329     H        0.78496    0.60506    0.48144    1.000
    H330     H        0.89500    0.71422    0.52518    1.000
    H331     H        0.71505    0.89496    0.48144    1.000
    H332     H        0.60501    0.78580    0.52518    1.000
    H333     H        0.83063    0.77854    0.52692    1.000
    H334     H        0.77914    0.83039    0.48111    1.000
    H335     H        0.72087    0.66963    0.48111    1.000
    H336     H        0.66938    0.72148    0.52692    1.000
    C337     C        0.23010    0.27005    0.50402    1.000
    C338     C        0.18003    0.25893    0.51616    1.000
    C339     C        0.14289    0.29610    0.51550    1.000
    X340     C        0.15450    0.34591    0.50319    1.000
    C341     C        0.20451    0.35724    0.49150    1.000
    C342     C        0.24156    0.31998    0.49164    1.000
    C343     C        0.26991    0.22996    0.50402    1.000
    C344     C        0.31998    0.24109    0.51616    1.000
    C345     C        0.35712    0.20391    0.51550    1.000
    X346     C        0.34551    0.15411    0.50319    1.000
    C347     C        0.29550    0.14277    0.49150    1.000
    C348     C        0.25845    0.18003    0.49164    1.000
    H349     H        0.10501    0.28580    0.52518    1.000
    H350     H        0.21505    0.39496    0.48144    1.000
    H351     H        0.39500    0.21422    0.52518    1.000
    H352     H        0.28496    0.10506    0.48144    1.000
    H353     H        0.27914    0.33039    0.48111    1.000
    H354     H        0.33063    0.27854    0.52692    1.000
    H355     H        0.16938    0.22148    0.52692    1.000
    H356     H        0.22087    0.16963    0.48111    1.000
    C357     C        0.22996    0.76991    0.00412    1.000
    C358     C        0.18002    0.75843    0.99178    1.000
    C359     C        0.14276    0.79546    0.99163    1.000
    X360     C        0.15411    0.84548    0.00327    1.000
    C361     C        0.20391    0.85711    0.01554    1.000
    C362     C        0.24108    0.81999    0.01622    1.000
    C363     C        0.27005    0.73011    0.00412    1.000
    C364     C        0.31999    0.74159    0.99178    1.000
    C365     C        0.35725    0.70455    0.99163    1.000
    X366     C        0.34590    0.65453    0.00327    1.000
    C367     C        0.29610    0.64290    0.01554    1.000
    C368     C        0.25893    0.68003    0.01622    1.000
    H369     H        0.10504    0.78491    0.98161    1.000
    H370     H        0.21422    0.89501    0.02518    1.000
    H371     H        0.39497    0.71510    0.98161    1.000
    H372     H        0.28579    0.60501    0.02518    1.000
    H373     H        0.27854    0.83065    0.02695    1.000
    H374     H        0.33039    0.77918    0.98128    1.000
    H375     H        0.16962    0.72084    0.98128    1.000
    H376     H        0.22147    0.66936    0.02695    1.000
    C377     C        0.99633    0.22999    0.23007    1.000
    C378     C        0.00842    0.17999    0.24150    1.000
    C379     C        0.00849    0.14278    0.20442    1.000
    X380     C        0.99698    0.15424    0.15438    1.000
    C381     C        0.98502    0.20413    0.14279    1.000
    C382     C        0.98444    0.24125    0.17997    1.000
    C383     C        0.99635    0.27001    0.26995    1.000
    C384     C        0.00902    0.31990    0.25861    1.000
    C385     C        0.00910    0.35711    0.29570    1.000
    X386     C        0.99706    0.34576    0.34562    1.000
    C387     C        0.98450    0.29600    0.35712    1.000
    C388     C        0.98389    0.25887    0.31994    1.000
    H389     H        0.01833    0.10500    0.21494    1.000
    H390     H        0.97555    0.21453    0.10488    1.000
    H391     H        0.01940    0.39479    0.28526    1.000
    H392     H        0.97456    0.28571    0.39494    1.000
    H393     H        0.97394    0.27878    0.16933    1.000
    H394     H        0.01981    0.33029    0.22110    1.000
    H395     H        0.01878    0.16949    0.27911    1.000
    H396     H        0.97292    0.22145    0.33048    1.000
    C397     C        0.49581    0.27004    0.76991    1.000
    C398     C        0.48403    0.25879    0.82004    1.000
    C399     C        0.48471    0.29592    0.85722    1.000
    X400     C        0.49663    0.34581    0.84559    1.000
    C401     C        0.50796    0.35726    0.79552    1.000
    C402     C        0.50782    0.32005    0.75844    1.000
    C403     C        0.49582    0.22999    0.73004    1.000
    C404     C        0.48347    0.24112    0.68002    1.000
    C405     C        0.48418    0.20399    0.64284    1.000
    X406     C        0.49671    0.15423    0.65437    1.000
    C407     C        0.50858    0.14288    0.70434    1.000
    C408     C        0.50842    0.18010    0.74141    1.000
    H409     H        0.47535    0.28551    0.89515    1.000
    H410     H        0.51771    0.39505    0.78495    1.000
    H411     H        0.47434    0.21428    0.60499    1.000
    H412     H        0.51881    0.10519    0.71481    1.000
    H413     H        0.51808    0.33056    0.72081    1.000
    H414     H        0.47253    0.27854    0.66944    1.000
    H415     H        0.47357    0.22126    0.83072    1.000
    H416     H        0.51912    0.16969    0.77895    1.000
    C417     C        0.99581    0.77004    0.76991    1.000
    C418     C        0.98403    0.75879    0.82004    1.000
    C419     C        0.98471    0.79592    0.85722    1.000
    X420     C        0.99663    0.84581    0.84559    1.000
    C421     C        0.00796    0.85726    0.79552    1.000
    C422     C        0.00782    0.82005    0.75844    1.000
    C423     C        0.99582    0.72999    0.73004    1.000
    C424     C        0.98347    0.74112    0.68002    1.000
    C425     C        0.98418    0.70399    0.64284    1.000
    X426     C        0.99671    0.65423    0.65437    1.000
    C427     C        0.00858    0.64288    0.70434    1.000
    C428     C        0.00842    0.68010    0.74141    1.000
    H429     H        0.97535    0.78551    0.89515    1.000
    H430     H        0.01771    0.89505    0.78495    1.000
    H431     H        0.97434    0.71428    0.60499    1.000
    H432     H        0.01881    0.60519    0.71481    1.000
    H433     H        0.01807    0.83056    0.72081    1.000
    H434     H        0.97253    0.77854    0.66944    1.000
    H435     H        0.97357    0.72126    0.83072    1.000
    H436     H        0.01912    0.66969    0.77895    1.000
    C437     C        0.49633    0.72999    0.23007    1.000
    C438     C        0.50842    0.67999    0.24150    1.000
    C439     C        0.50849    0.64278    0.20442    1.000
    X440     C        0.49698    0.65424    0.15438    1.000
    C441     C        0.48502    0.70413    0.14279    1.000
    C442     C        0.48444    0.74125    0.17997    1.000
    C443     C        0.49635    0.77001    0.26995    1.000
    C444     C        0.50902    0.81990    0.25861    1.000
    C445     C        0.50910    0.85711    0.29570    1.000
    X446     C        0.49706    0.84576    0.34562    1.000
    C447     C        0.48450    0.79600    0.35712    1.000
    C448     C        0.48389    0.75887    0.31994    1.000
    H449     H        0.51833    0.60500    0.21494    1.000
    H450     H        0.47555    0.71453    0.10488    1.000
    H451     H        0.51940    0.89479    0.28526    1.000
    H452     H        0.47456    0.78571    0.39494    1.000
    H453     H        0.47394    0.77878    0.16933    1.000
    H454     H        0.51981    0.83029    0.22110    1.000
    H455     H        0.51878    0.66949    0.27911    1.000
    H456     H        0.47292    0.72145    0.33048    1.000
    C457     C        0.00367    0.77002    0.23007    1.000
    C458     C        0.01557    0.75876    0.17997    1.000
    C459     C        0.01499    0.79589    0.14279    1.000
    X460     C        0.00303    0.84578    0.15438    1.000
    C461     C        0.99152    0.85723    0.20442    1.000
    C462     C        0.99158    0.82003    0.24150    1.000
    C463     C        0.00366    0.73000    0.26995    1.000
    C464     C        0.01612    0.74114    0.31994    1.000
    C465     C        0.01551    0.70402    0.35712    1.000
    X466     C        0.00295    0.65426    0.34562    1.000
    C467     C        0.99090    0.64291    0.29570    1.000
    C468     C        0.99099    0.68012    0.25861    1.000
    H469     H        0.02446    0.78549    0.10488    1.000
    H470     H        0.98168    0.89501    0.21494    1.000
    H471     H        0.02545    0.71431    0.39494    1.000
    H472     H        0.98061    0.60523    0.28526    1.000
    H473     H        0.98123    0.83053    0.27911    1.000
    H474     H        0.02709    0.77856    0.33048    1.000
    H475     H        0.02607    0.72124    0.16933    1.000
    H476     H        0.98020    0.66972    0.22110    1.000
    C477     C        0.50420    0.72998    0.76991    1.000
    C478     C        0.49219    0.67997    0.75844    1.000
    C479     C        0.49205    0.64275    0.79552    1.000
    X480     C        0.50338    0.65421    0.84559    1.000
    C481     C        0.51530    0.70410    0.85722    1.000
    C482     C        0.51597    0.74123    0.82004    1.000
    C483     C        0.50419    0.77002    0.73004    1.000
    C484     C        0.49159    0.81992    0.74141    1.000
    C485     C        0.49143    0.85713    0.70434    1.000
    X486     C        0.50330    0.84579    0.65437    1.000
    C487     C        0.51583    0.79603    0.64284    1.000
    C488     C        0.51654    0.75890    0.68002    1.000
    H489     H        0.48230    0.60497    0.78495    1.000
    H490     H        0.52466    0.71451    0.89515    1.000
    H491     H        0.48120    0.89482    0.71481    1.000
    H492     H        0.52567    0.78573    0.60499    1.000
    H493     H        0.52644    0.77876    0.83072    1.000
    H494     H        0.48089    0.83033    0.77895    1.000
    H495     H        0.48193    0.66945    0.72081    1.000
    H496     H        0.52748    0.72148    0.66944    1.000
    C497     C        0.50367    0.27002    0.23007    1.000
    C498     C        0.51557    0.25876    0.17997    1.000
    C499     C        0.51499    0.29589    0.14279    1.000
    X500     C        0.50303    0.34578    0.15438    1.000
    C501     C        0.49152    0.35723    0.20442    1.000
    C502     C        0.49158    0.32003    0.24150    1.000
    C503     C        0.50366    0.23000    0.26995    1.000
    C504     C        0.51612    0.24114    0.31994    1.000
    C505     C        0.51551    0.20402    0.35712    1.000
    X506     C        0.50295    0.15426    0.34562    1.000
    C507     C        0.49090    0.14291    0.29570    1.000
    C508     C        0.49099    0.18012    0.25861    1.000
    H509     H        0.52446    0.28549    0.10488    1.000
    H510     H        0.48168    0.39501    0.21494    1.000
    H511     H        0.52545    0.21431    0.39494    1.000
    H512     H        0.48061    0.10523    0.28526    1.000
    H513     H        0.48123    0.33053    0.27911    1.000
    H514     H        0.52709    0.27856    0.33048    1.000
    H515     H        0.52607    0.22124    0.16933    1.000
    H516     H        0.48020    0.16972    0.22110    1.000
    C517     C        0.00420    0.22998    0.76991    1.000
    C518     C        0.99219    0.17997    0.75844    1.000
    C519     C        0.99205    0.14275    0.79552    1.000
    X520     C        0.00338    0.15421    0.84559    1.000
    C521     C        0.01530    0.20410    0.85722    1.000
    C522     C        0.01597    0.24123    0.82004    1.000
    C523     C        0.00419    0.27002    0.73004    1.000
    C524     C        0.99159    0.31992    0.74141    1.000
    C525     C        0.99143    0.35713    0.70434    1.000
    X526     C        0.00330    0.34579    0.65437    1.000
    C527     C        0.01583    0.29603    0.64284    1.000
    C528     C        0.01654    0.25890    0.68002    1.000
    H529     H        0.98230    0.10497    0.78495    1.000
    H530     H        0.02466    0.21451    0.89515    1.000
    H531     H        0.98120    0.39482    0.71481    1.000
    H532     H        0.02567    0.28573    0.60499    1.000
    H533     H        0.02644    0.27876    0.83072    1.000
    H534     H        0.98089    0.33033    0.77895    1.000
    H535     H        0.98193    0.16945    0.72081    1.000
    H536     H        0.02748    0.22148    0.66944    1.000
    C537     C        0.23000    0.99599    0.23004    1.000
    C538     C        0.24112    0.98353    0.18005    1.000
    C539     C        0.20399    0.98415    0.14288    1.000
    X540     C        0.15423    0.99674    0.15438    1.000
    C541     C        0.14290    0.00879    0.20431    1.000
    C542     C        0.18012    0.00868    0.24139    1.000
    C543     C        0.27003    0.99598    0.26990    1.000
    C544     C        0.25879    0.98407    0.32000    1.000
    C545     C        0.29592    0.98467    0.35717    1.000
    X546     C        0.34580    0.99666    0.34557    1.000
    C547     C        0.35724    0.00818    0.29553    1.000
    C548     C        0.32002    0.00810    0.25845    1.000
    H549     H        0.21426    0.97421    0.10505    1.000
    H550     H        0.10523    0.01911    0.21475    1.000
    H551     H        0.28553    0.97519    0.39508    1.000
    H552     H        0.39501    0.01804    0.28500    1.000
    H553     H        0.16974    0.01948    0.27890    1.000
    H554     H        0.22127    0.97355    0.33064    1.000
    H555     H        0.27853    0.97254    0.16950    1.000
    H556     H        0.33051    0.01846    0.22085    1.000
    C557     C        0.26993    0.49632    0.77000    1.000
    C558     C        0.32008    0.48466    0.75873    1.000
    C559     C        0.35724    0.48527    0.79587    1.000
    X560     C        0.34559    0.49704    0.84580    1.000
    C561     C        0.29550    0.50828    0.85727    1.000
    C562     C        0.25843    0.50820    0.82004    1.000
    C563     C        0.23006    0.49632    0.72996    1.000
    C564     C        0.18007    0.48382    0.74107    1.000
    C565     C        0.14290    0.48441    0.70393    1.000
    X566     C        0.15439    0.49697    0.65417    1.000
    C567     C        0.20431    0.50908    0.64285    1.000
    C568     C        0.24138    0.50903    0.68008    1.000
    H569     H        0.39519    0.47599    0.78545    1.000
    H570     H        0.28491    0.51791    0.89508    1.000
    H571     H        0.10508    0.47446    0.71422    1.000
    H572     H        0.21475    0.51940    0.60517    1.000
    H573     H        0.22078    0.51837    0.83058    1.000
    H574     H        0.16952    0.47282    0.77847    1.000
    H575     H        0.33078    0.47431    0.72118    1.000
    H576     H        0.27888    0.51987    0.66969    1.000
    C577     C        0.76993    0.99632    0.77000    1.000
    C578     C        0.82008    0.98466    0.75873    1.000
    C579     C        0.85724    0.98527    0.79587    1.000
    X580     C        0.84559    0.99704    0.84580    1.000
    C581     C        0.79550    0.00828    0.85727    1.000
    C582     C        0.75843    0.00820    0.82004    1.000
    C583     C        0.73006    0.99632    0.72996    1.000
    C584     C        0.68007    0.98382    0.74107    1.000
    C585     C        0.64290    0.98441    0.70393    1.000
    X586     C        0.65439    0.99697    0.65417    1.000
    C587     C        0.70431    0.00908    0.64285    1.000
    C588     C        0.74138    0.00903    0.68008    1.000
    H589     H        0.89519    0.97599    0.78545    1.000
    H590     H        0.78491    0.01791    0.89508    1.000
    H591     H        0.60508    0.97446    0.71422    1.000
    H592     H        0.71475    0.01940    0.60517    1.000
    H593     H        0.72078    0.01837    0.83058    1.000
    H594     H        0.66952    0.97282    0.77847    1.000
    H595     H        0.83078    0.97431    0.72118    1.000
    H596     H        0.77888    0.01987    0.66969    1.000
    C597     C        0.73000    0.49599    0.23004    1.000
    C598     C        0.74112    0.48353    0.18005    1.000
    C599     C        0.70399    0.48415    0.14288    1.000
    X600     C        0.65423    0.49674    0.15438    1.000
    C601     C        0.64290    0.50879    0.20431    1.000
    C602     C        0.68012    0.50868    0.24139    1.000
    C603     C        0.77003    0.49598    0.26990    1.000
    C604     C        0.75879    0.48407    0.32000    1.000
    C605     C        0.79592    0.48467    0.35717    1.000
    X606     C        0.84580    0.49666    0.34557    1.000
    C607     C        0.85724    0.50818    0.29553    1.000
    C608     C        0.82002    0.50810    0.25845    1.000
    H609     H        0.71426    0.47421    0.10505    1.000
    H610     H        0.60523    0.51911    0.21475    1.000
    H611     H        0.78553    0.47519    0.39508    1.000
    H612     H        0.89501    0.51804    0.28500    1.000
    H613     H        0.66974    0.51948    0.27890    1.000
    H614     H        0.72127    0.47355    0.33064    1.000
    H615     H        0.77853    0.47254    0.16950    1.000
    H616     H        0.83051    0.51846    0.22085    1.000
    C617     C        0.23008    0.00369    0.77000    1.000
    C618     C        0.17993    0.01536    0.75873    1.000
    C619     C        0.14277    0.01475    0.79587    1.000
    X620     C        0.15442    0.00298    0.84580    1.000
    C621     C        0.20451    0.99174    0.85727    1.000
    C622     C        0.24158    0.99182    0.82004    1.000
    C623     C        0.26995    0.00370    0.72996    1.000
    C624     C        0.31994    0.01620    0.74107    1.000
    C625     C        0.35711    0.01561    0.70393    1.000
    X626     C        0.34562    0.00305    0.65417    1.000
    C627     C        0.29570    0.99094    0.64285    1.000
    C628     C        0.25863    0.99099    0.68008    1.000
    H629     H        0.10482    0.02403    0.78545    1.000
    H630     H        0.21510    0.98210    0.89508    1.000
    H631     H        0.39493    0.02556    0.71422    1.000
    H632     H        0.28526    0.98062    0.60517    1.000
    H633     H        0.27923    0.98165    0.83058    1.000
    H634     H        0.33049    0.02720    0.77847    1.000
    H635     H        0.16923    0.02571    0.72118    1.000
    H636     H        0.22113    0.98014    0.66969    1.000
    C637     C        0.27001    0.50402    0.23004    1.000
    C638     C        0.25889    0.51649    0.18005    1.000
    C639     C        0.29602    0.51587    0.14288    1.000
    X640     C        0.34578    0.50328    0.15438    1.000
    C641     C        0.35710    0.49123    0.20431    1.000
    C642     C        0.31989    0.49133    0.24139    1.000
    C643     C        0.22998    0.50404    0.26990    1.000
    C644     C        0.24122    0.51594    0.32000    1.000
    C645     C        0.20409    0.51535    0.35717    1.000
    X646     C        0.15421    0.50336    0.34557    1.000
    C647     C        0.14277    0.49184    0.29553    1.000
    C648     C        0.17999    0.49192    0.25845    1.000
    H649     H        0.28575    0.52581    0.10505    1.000
    H650     H        0.39478    0.48091    0.21475    1.000
    H651     H        0.21448    0.52483    0.39508    1.000
    H652     H        0.10500    0.48197    0.28500    1.000
    H653     H        0.33027    0.48054    0.27890    1.000
    H654     H        0.27874    0.52646    0.33064    1.000
    H655     H        0.22147    0.52747    0.16950    1.000
    H656     H        0.16950    0.48156    0.22085    1.000
    C657     C        0.77001    0.00402    0.23004    1.000
    C658     C        0.75889    0.01649    0.18005    1.000
    C659     C        0.79602    0.01587    0.14288    1.000
    X660     C        0.84578    0.00328    0.15438    1.000
    C661     C        0.85710    0.99123    0.20431    1.000
    C662     C        0.81989    0.99133    0.24139    1.000
    C663     C        0.72998    0.00404    0.26990    1.000
    C664     C        0.74122    0.01594    0.32000    1.000
    C665     C        0.70409    0.01535    0.35717    1.000
    X666     C        0.65421    0.00336    0.34557    1.000
    C667     C        0.64277    0.99184    0.29553    1.000
    C668     C        0.67999    0.99192    0.25845    1.000
    H669     H        0.78575    0.02581    0.10505    1.000
    H670     H        0.89478    0.98091    0.21475    1.000
    H671     H        0.71448    0.02483    0.39508    1.000
    H672     H        0.60500    0.98197    0.28500    1.000
    H673     H        0.83027    0.98054    0.27890    1.000
    H674     H        0.77874    0.02646    0.33064    1.000
    H675     H        0.72147    0.02747    0.16950    1.000
    H676     H        0.66950    0.98156    0.22085    1.000
    C677     C        0.73008    0.50369    0.77000    1.000
    C678     C        0.67993    0.51536    0.75873    1.000
    C679     C        0.64277    0.51475    0.79587    1.000
    X680     C        0.65442    0.50298    0.84580    1.000
    C681     C        0.70451    0.49174    0.85727    1.000
    C682     C        0.74158    0.49182    0.82004    1.000
    C683     C        0.76995    0.50370    0.72996    1.000
    C684     C        0.81994    0.51620    0.74107    1.000
    C685     C        0.85711    0.51561    0.70393    1.000
    X686     C        0.84562    0.50305    0.65417    1.000
    C687     C        0.79570    0.49094    0.64285    1.000
    C688     C        0.75863    0.49099    0.68008    1.000
    H689     H        0.60482    0.52403    0.78545    1.000
    H690     H        0.71510    0.48210    0.89508    1.000
    H691     H        0.89493    0.52556    0.71422    1.000
    H692     H        0.78526    0.48062    0.60517    1.000
    H693     H        0.77923    0.48165    0.83058    1.000
    H694     H        0.83049    0.52720    0.77847    1.000
    H695     H        0.66923    0.52571    0.72118    1.000
    H696     H        0.72113    0.48014    0.66969    1.000
