# CIF file generated by openbabel 3.1.0, see https://openbabel.org
data_I
_chemical_name_common 'image0'
_cell_length_a 9.4327
_cell_length_b 10.1954
_cell_length_c 11.2452
_cell_angle_alpha 63.983
_cell_angle_beta 73.212
_cell_angle_gamma 83.22
_space_group_name_H-M_alt 'P 1'
_space_group_name_Hall 'P 1'
loop_
    _symmetry_equiv_pos_as_xyz
    x,y,z
loop_
    _atom_site_label
    _atom_site_type_symbol
    _atom_site_fract_x
    _atom_site_fract_y
    _atom_site_fract_z
    _atom_site_occupancy
    Cd1      Cd       0.01420    0.34120    0.18680    1.000
    O1       O        0.01630    0.99520    0.29130    1.000
    O2       O        0.12910    0.18840    0.10330    1.000
    O3       O        0.99710    0.55770    0.20430    1.000
    O4       O        0.78470    0.26080    0.30530    1.000
    O5       O        0.78070    0.10850    0.52240    1.000
    O6       O        0.48840    0.24270    0.36440    1.000
    O7       O        0.07610    0.83190    0.14630    1.000
    O8       O        0.10690    0.23170    0.38390    1.000
    C1       C        0.08950    0.05670    0.17020    1.000
    C2       C        0.07780    0.63020    0.08510    1.000
    O9       O        0.12230    0.58180    0.99600    1.000
    C3       C        0.12450    0.77810    0.04840    1.000
    C4       C        0.24250    0.27540    0.33170    1.000
    C5       C        0.34030    0.21920    0.42470    1.000
    O10      O        0.29070    0.36240    0.21100    1.000
    C6       C        0.72170    0.18270    0.42900    1.000
    C7       C        0.55690    0.18070    0.46650    1.000
    C8       C        0.31410    0.14400    0.56300    1.000
    H1       H        0.22250    0.11530    0.62670    1.000
    C9       C        0.45490    0.11810    0.59060    1.000
    H2       H        0.47400    0.06850    0.67610    1.000
    C10      C        0.13360    0.96960    0.08820    1.000
    C11      C        0.21090    0.87860    0.93210    1.000
    H3       H        0.25920    0.86780    0.85220    1.000
    C12      C        0.21320    0.00380    0.95600    1.000
    H4       H        0.26010    0.09240    0.89330    1.000
    Cd2      Cd       0.98580    0.65880    0.81320    1.000
    O11      O        0.98370    0.00480    0.70870    1.000
    O12      O        0.87090    0.81160    0.89670    1.000
    O13      O        0.00290    0.44230    0.79570    1.000
    O14      O        0.21530    0.73920    0.69470    1.000
    O15      O        0.21930    0.89150    0.47760    1.000
    O16      O        0.51160    0.75730    0.63560    1.000
    O17      O        0.92390    0.16810    0.85370    1.000
    O18      O        0.89310    0.76830    0.61610    1.000
    C13      C        0.91050    0.94330    0.82980    1.000
    C14      C        0.92220    0.36980    0.91490    1.000
    O19      O        0.87770    0.41820    0.00400    1.000
    C15      C        0.87550    0.22190    0.95160    1.000
    C16      C        0.75750    0.72460    0.66830    1.000
    C17      C        0.65970    0.78080    0.57530    1.000
    O20      O        0.70930    0.63760    0.78900    1.000
    C18      C        0.27830    0.81730    0.57100    1.000
    C19      C        0.44310    0.81930    0.53350    1.000
    C20      C        0.68590    0.85600    0.43700    1.000
    H5       H        0.77750    0.88470    0.37330    1.000
    C21      C        0.54510    0.88190    0.40940    1.000
    H6       H        0.52600    0.93150    0.32390    1.000
    C22      C        0.86640    0.03040    0.91180    1.000
    C23      C        0.78910    0.12140    0.06790    1.000
    H7       H        0.74080    0.13220    0.14780    1.000
    C24      C        0.78680    0.99620    0.04400    1.000
    H8       H        0.73990    0.90760    0.10670    1.000
    Cd3      Cd       0.00000    0.00000    0.50000    1.000
