# CIF file generated by openbabel 3.1.0, see https://openbabel.org
data_I
_chemical_name_common 'XIPTAS_clean'
_cell_length_a 7.6668
_cell_length_b 9.8734
_cell_length_c 14.905
_cell_angle_alpha 90
_cell_angle_beta 98.365
_cell_angle_gamma 90
_space_group_name_H-M_alt 'P 1'
_space_group_name_Hall 'P 1'
loop_
    _symmetry_equiv_pos_as_xyz
    x,y,z
loop_
    _atom_site_label
    _atom_site_type_symbol
    _atom_site_fract_x
    _atom_site_fract_y
    _atom_site_fract_z
    _atom_site_occupancy
    Sm1      Sm       0.85343    0.95571    0.13970    1.000
    Sm2      Sm       0.64657    0.45571    0.36030    1.000
    Sm3      Sm       0.14657    0.04429    0.86030    1.000
    Sm4      Sm       0.35343    0.54429    0.63970    1.000
    H1       H        0.61490    0.69830    0.98420    1.000
    H2       H        0.82540    0.38740    0.13460    1.000
    H3       H        0.79560    0.38940    0.86360    1.000
    H4       H        0.88510    0.19830    0.51580    1.000
    H5       H        0.67460    0.88740    0.36540    1.000
    H6       H        0.70440    0.88940    0.63640    1.000
    H7       H        0.38510    0.30170    0.01580    1.000
    H8       H        0.17460    0.61260    0.86540    1.000
    H9       H        0.20440    0.61060    0.13640    1.000
    H10      H        0.11490    0.80170    0.48420    1.000
    H11      H        0.32540    0.11260    0.63460    1.000
    H12      H        0.29560    0.11060    0.36360    1.000
    C1       C        0.66920    0.61380    0.98780    1.000
    C2       C        0.72130    0.55860    0.07360    1.000
    C3       C        0.79610    0.43020    0.07890    1.000
    C4       C        0.82610    0.36740    0.99950    1.000
    C5       C        0.77360    0.43170    0.91650    1.000
    C6       C        0.69200    0.63680    0.15590    1.000
    C7       C        0.91120    0.23050    0.00090    1.000
    C8       C        0.45650    0.03130    0.03890    1.000
    C9       C        0.83080    0.11380    0.51220    1.000
    C10      C        0.77870    0.05860    0.42640    1.000
    C11      C        0.70390    0.93020    0.42110    1.000
    C12      C        0.67390    0.86740    0.50050    1.000
    C13      C        0.72640    0.93170    0.58350    1.000
    C14      C        0.80800    0.13680    0.34410    1.000
    C15      C        0.58880    0.73050    0.49910    1.000
    C16      C        0.04350    0.53130    0.46110    1.000
    C17      C        0.33080    0.38620    0.01220    1.000
    C18      C        0.27870    0.44140    0.92640    1.000
    C19      C        0.20390    0.56980    0.92110    1.000
    C20      C        0.17390    0.63260    0.00050    1.000
    C21      C        0.22640    0.56830    0.08350    1.000
    C22      C        0.30800    0.36320    0.84410    1.000
    C23      C        0.08880    0.76950    0.99910    1.000
    C24      C        0.54350    0.96870    0.96110    1.000
    C25      C        0.16920    0.88620    0.48780    1.000
    C26      C        0.22130    0.94140    0.57360    1.000
    C27      C        0.29610    0.06980    0.57890    1.000
    C28      C        0.32610    0.13260    0.49950    1.000
    C29      C        0.27360    0.06830    0.41650    1.000
    C30      C        0.19200    0.86320    0.65590    1.000
    C31      C        0.41120    0.26950    0.50090    1.000
    C32      C        0.95650    0.46870    0.53890    1.000
    N1       N        0.69250    0.55250    0.91050    1.000
    N2       N        0.80750    0.05250    0.58950    1.000
    N3       N        0.30750    0.44750    0.08950    1.000
    N4       N        0.19250    0.94750    0.41050    1.000
    O1       O        0.66590    0.76340    0.14621    1.000
    O2       O        0.69620    0.57700    0.22951    1.000
    O3       O        0.97620    0.19490    0.93270    1.000
    O4       O        0.91070    0.16040    0.07100    1.000
    O5       O        0.55260    0.05030    0.11310    1.000
    O6       O        0.29680    0.06210    0.02050    1.000
    O7       O        0.83410    0.26340    0.35379    1.000
    O8       O        0.80380    0.07700    0.27049    1.000
    O9       O        0.52380    0.69490    0.56730    1.000
    O10      O        0.58930    0.66040    0.42900    1.000
    O11      O        0.94740    0.55030    0.38690    1.000
    O12      O        0.20320    0.56210    0.47950    1.000
    O13      O        0.33410    0.23660    0.85379    1.000
    O14      O        0.30380    0.42300    0.77049    1.000
    O15      O        0.02380    0.80510    0.06730    1.000
    O16      O        0.08930    0.83960    0.92900    1.000
    O17      O        0.44740    0.94970    0.88690    1.000
    O18      O        0.70320    0.93790    0.97950    1.000
    O19      O        0.16590    0.73660    0.64621    1.000
    O20      O        0.19620    0.92300    0.72951    1.000
    O21      O        0.47620    0.30510    0.43270    1.000
    O22      O        0.41070    0.33960    0.57100    1.000
    O23      O        0.05260    0.44970    0.61310    1.000
    O24      O        0.79680    0.43790    0.52050    1.000
