# CIF file generated by openbabel 3.1.0, see https://openbabel.org
data_I
_chemical_name_common 'image0'
_cell_length_a 8.5607
_cell_length_b 14.1023
_cell_length_c 20.294
_cell_angle_alpha 88.5392
_cell_angle_beta 86.4998
_cell_angle_gamma 81.2519
_space_group_name_H-M_alt 'P 1'
_space_group_name_Hall 'P 1'
loop_
    _symmetry_equiv_pos_as_xyz
    x,y,z
loop_
    _atom_site_label
    _atom_site_type_symbol
    _atom_site_fract_x
    _atom_site_fract_y
    _atom_site_fract_z
    _atom_site_occupancy
    C1       C        0.25250    0.58830    0.09227    1.000
    C2       C        0.38730    0.53620    0.04726    1.000
    C3       C        0.49050    0.45080    0.05874    1.000
    C4       C        0.50430    0.38760    0.12180    1.000
    C5       C        0.12710    0.93270    0.09011    1.000
    C6       C        0.97760    0.91050    0.06190    1.000
    C7       C        0.82160    0.95660    0.07765    1.000
    C8       C        0.72380    0.84840    0.01594    1.000
    C9       C        0.87540    0.80380    0.99791    1.000
    C10      C        0.91900    0.72110    0.95020    1.000
    C11      C        0.78230    0.04550    0.11890    1.000
    C12      C        0.57560    0.81250    0.99720    1.000
    C13      C        0.20630    0.58220    0.40344    1.000
    C14      C        0.09150    0.53530    0.45065    1.000
    C15      C        0.98250    0.54520    0.55902    1.000
    C16      C        0.98990    0.59990    0.62193    1.000
    C17      C        0.49270    0.02150    0.35210    1.000
    C18      C        0.48130    0.94520    0.40640    1.000
    C19      C        0.34500    0.90540    0.42695    1.000
    C20      C        0.49570    0.79910    0.49636    1.000
    C21      C        0.63100    0.84060    0.47433    1.000
    C22      C        0.79520    0.80440    0.49700    1.000
    C23      C        0.49650    0.71730    0.54468    1.000
    C24      C        0.17760    0.93310    0.40563    1.000
    N1       N        0.07140    0.57770    0.50935    1.000
    N2       N        0.35650    0.83350    0.47182    1.000
    N3       N        0.00060    0.83580    0.02209    1.000
    N4       N        0.69640    0.92360    0.05561    1.000
    N5       N        0.62160    0.91370    0.43163    1.000
    O1       O        0.21560    0.67570    0.07924    1.000
    O2       O        0.18570    0.54260    0.13631    1.000
    N6       N        0.40060    0.58260    0.98907    1.000
    O3       O        0.43830    0.41980    0.17464    1.000
    O4       O        0.58680    0.30670    0.11474    1.000
    O5       O        0.06500    0.68820    0.94271    1.000
    O6       O        0.80890    0.69510    0.92119    1.000
    O7       O        0.25490    0.89120    0.06385    1.000
    O8       O        0.10980    0.98930    0.13775    1.000
    O9       O        0.53060    0.74430    0.03041    1.000
    O10      O        0.49750    0.85570    0.95153    1.000
    O11      O        0.83010    0.12100    0.09551    1.000
    O12      O        0.70210    0.03900    0.17163    1.000
    O13      O        0.27850    0.53620    0.35698    1.000
    O14      O        0.22460    0.66600    0.41849    1.000
    O15      O        0.03320    0.68110    0.61352    1.000
    O16      O        0.96210    0.56030    0.67619    1.000
    O17      O        0.44550    0.00390    0.29744    1.000
    O18      O        0.55760    0.09200    0.36598    1.000
    O19      O        0.14930    0.00050    0.36364    1.000
    O20      O        0.07670    0.88650    0.43284    1.000
    O21      O        0.36180    0.69060    0.55860    1.000
    O22      O        0.62440    0.68120    0.56684    1.000
    O23      O        0.84570    0.84050    0.54451    1.000
    O24      O        0.87610    0.74110    0.45989    1.000
    Gd1      Gd       0.27504    0.76286    0.98096    1.000
    Gd2      Gd       0.23167    0.48581    0.24766    1.000
    Gd3      Gd       0.11899    0.75955    0.51428    1.000
    Gd4      Gd       0.21156    0.03019    0.24149    1.000
    C25      C        0.74750    0.41170    0.90773    1.000
    C26      C        0.61270    0.46380    0.95274    1.000
    C27      C        0.50950    0.54920    0.94126    1.000
    C28      C        0.49570    0.61240    0.87820    1.000
    C29      C        0.87290    0.06730    0.90989    1.000
    C30      C        0.02240    0.08950    0.93810    1.000
    C31      C        0.17840    0.04340    0.92235    1.000
    C32      C        0.27620    0.15160    0.98406    1.000
    C33      C        0.12460    0.19620    0.00209    1.000
    C34      C        0.08100    0.27890    0.04980    1.000
    C35      C        0.21770    0.95450    0.88110    1.000
    C36      C        0.42440    0.18750    0.00280    1.000
    C37      C        0.79370    0.41780    0.59656    1.000
    C38      C        0.90850    0.46470    0.54935    1.000
    C39      C        0.01750    0.45480    0.44098    1.000
    C40      C        0.01010    0.40010    0.37807    1.000
    C41      C        0.50730    0.97850    0.64790    1.000
    C42      C        0.51870    0.05480    0.59360    1.000
    C43      C        0.65500    0.09460    0.57305    1.000
    C44      C        0.50430    0.20090    0.50364    1.000
    C45      C        0.36900    0.15940    0.52567    1.000
    C46      C        0.20480    0.19560    0.50300    1.000
    C47      C        0.50350    0.28270    0.45532    1.000
    C48      C        0.82240    0.06690    0.59437    1.000
    N7       N        0.92860    0.42230    0.49065    1.000
    N8       N        0.64350    0.16650    0.52818    1.000
    N9       N        0.99940    0.16420    0.97791    1.000
    N10      N        0.30360    0.07640    0.94439    1.000
    N11      N        0.37840    0.08630    0.56837    1.000
    O25      O        0.78440    0.32430    0.92076    1.000
    O26      O        0.81430    0.45740    0.86369    1.000
    N12      N        0.59940    0.41740    0.01093    1.000
    O27      O        0.56170    0.58020    0.82536    1.000
    O28      O        0.41320    0.69330    0.88526    1.000
    O29      O        0.93500    0.31180    0.05729    1.000
    O30      O        0.19110    0.30490    0.07881    1.000
    O31      O        0.74510    0.10880    0.93615    1.000
    O32      O        0.89020    0.01070    0.86225    1.000
    O33      O        0.46940    0.25570    0.96959    1.000
    O34      O        0.50250    0.14430    0.04847    1.000
    O35      O        0.16990    0.87900    0.90449    1.000
    O36      O        0.29790    0.96100    0.82837    1.000
    O37      O        0.72150    0.46380    0.64302    1.000
    O38      O        0.77540    0.33400    0.58151    1.000
    O39      O        0.96680    0.31890    0.38648    1.000
    O40      O        0.03790    0.43970    0.32381    1.000
    O41      O        0.55450    0.99610    0.70256    1.000
    O42      O        0.44240    0.90800    0.63402    1.000
    O43      O        0.85070    0.99950    0.63636    1.000
    O44      O        0.92330    0.11350    0.56716    1.000
    O45      O        0.63820    0.30940    0.44140    1.000
    O46      O        0.37560    0.31880    0.43316    1.000
    O47      O        0.15430    0.15950    0.45549    1.000
    O48      O        0.12390    0.25890    0.54011    1.000
    Gd5      Gd       0.72496    0.23714    0.01904    1.000
    Gd6      Gd       0.76833    0.51419    0.75234    1.000
    Gd7      Gd       0.88101    0.24045    0.48572    1.000
    Gd8      Gd       0.78844    0.96981    0.75851    1.000
