# CIF file generated by openbabel 3.1.0, see https://openbabel.org
data_I
_chemical_name_common 'image0'
_cell_length_a 8.562
_cell_length_b 8.839
_cell_length_c 16.904
_cell_angle_alpha 82.238
_cell_angle_beta 89.592
_cell_angle_gamma 78.252
_space_group_name_H-M_alt 'P 1'
_space_group_name_Hall 'P 1'
loop_
    _symmetry_equiv_pos_as_xyz
    x,y,z
loop_
    _atom_site_label
    _atom_site_type_symbol
    _atom_site_fract_x
    _atom_site_fract_y
    _atom_site_fract_z
    _atom_site_occupancy
    N1       N        0.50480    0.46640    0.22400    1.000
    N2       N        0.13470    0.92460    0.15450    1.000
    B1       B        0.17480    0.76570    0.12280    1.000
    N3       N        0.02260    0.69850    0.11760    1.000
    N4       N        0.99420    0.14790    0.18730    1.000
    N5       N        0.24660    0.78000    0.03900    1.000
    N6       N        0.84680    0.54520    0.14340    1.000
    N7       N        0.31970    0.71810    0.91890    1.000
    C1       C        0.98460    0.57540    0.16330    1.000
    H1       H        0.04950    0.51680    0.20510    1.000
    C2       C        0.29450    0.62930    0.26300    1.000
    H2       H        0.21930    0.68190    0.29500    1.000
    N8       N        0.29690    0.65380    0.18060    1.000
    C3       C        0.22870    0.69400    0.98080    1.000
    H3       H        0.15940    0.62490    0.98400    1.000
    C4       C        0.23940    0.00100    0.18700    1.000
    H4       H        0.34910    0.96640    0.19390    1.000
    C5       C        0.89710    0.75030    0.06340    1.000
    H5       H        0.88680    0.83430    0.02290    1.000
    C6       C        0.42100    0.51510    0.28870    1.000
    H6       H        0.44720    0.47570    0.34190    1.000
    C7       C        0.42590    0.55040    0.16130    1.000
    H7       H        0.45560    0.53980    0.10900    1.000
    C8       C        0.35940    0.86470    0.01140    1.000
    H8       H        0.39860    0.93520    0.03800    1.000
    C9       C        0.15120    0.13620    0.20720    1.000
    H9       H        0.19170    0.20960    0.23090    1.000
    C10      C        0.98980    0.02030    0.15650    1.000
    H10      H        0.89640    0.99770    0.13780    1.000
    C11      C        0.40250    0.82580    0.93840    1.000
    H11      H        0.47700    0.86610    0.90620    1.000
    C12      C        0.79220    0.65620    0.08020    1.000
    H12      H        0.69640    0.66560    0.05260    1.000
    Cd1      Cd       0.75854    0.32394    0.21271    1.000
    O1       O        0.71110    0.33350    0.39820    1.000
    O2       O        0.70270    0.43560    0.53310    1.000
    H13      H        0.66310    0.41330    0.49340    1.000
    C13      C        0.83960    0.37420    0.38110    1.000
    C14      C        0.92330    0.43750    0.44310    1.000
    C15      C        0.92730    0.52880    0.57100    1.000
    H14      H        0.87790    0.54830    0.61880    1.000
    C16      C        0.84930    0.46650    0.51560    1.000
    O3       O        0.90390    0.36760    0.31410    1.000
    N9       N        0.49520    0.53360    0.77600    1.000
    N10      N        0.86530    0.07540    0.84550    1.000
    B2       B        0.82520    0.23430    0.87720    1.000
    N11      N        0.97740    0.30150    0.88240    1.000
    N12      N        0.00580    0.85210    0.81270    1.000
    N13      N        0.75340    0.22000    0.96100    1.000
    N14      N        0.15320    0.45480    0.85660    1.000
    N15      N        0.68030    0.28190    0.08110    1.000
    C17      C        0.01540    0.42460    0.83670    1.000
    H15      H        0.95050    0.48320    0.79490    1.000
    C18      C        0.70550    0.37070    0.73700    1.000
    H16      H        0.78070    0.31810    0.70500    1.000
    N16      N        0.70310    0.34620    0.81940    1.000
    C19      C        0.77130    0.30600    0.01920    1.000
    H17      H        0.84060    0.37510    0.01600    1.000
    C20      C        0.76060    0.99900    0.81300    1.000
    H18      H        0.65090    0.03360    0.80610    1.000
    C21      C        0.10290    0.24970    0.93660    1.000
    H19      H        0.11320    0.16570    0.97710    1.000
    C22      C        0.57900    0.48490    0.71130    1.000
    H20      H        0.55280    0.52430    0.65810    1.000
    C23      C        0.57410    0.44960    0.83870    1.000
    H21      H        0.54440    0.46020    0.89100    1.000
    C24      C        0.64060    0.13530    0.98860    1.000
    H22      H        0.60140    0.06480    0.96200    1.000
    C25      C        0.84880    0.86380    0.79280    1.000
    H23      H        0.80830    0.79040    0.76910    1.000
    C26      C        0.01020    0.97970    0.84350    1.000
    H24      H        0.10360    0.00230    0.86220    1.000
    C27      C        0.59750    0.17420    0.06160    1.000
    H25      H        0.52300    0.13390    0.09380    1.000
    C28      C        0.20780    0.34380    0.91980    1.000
    H26      H        0.30360    0.33440    0.94740    1.000
    Cd2      Cd       0.24146    0.67606    0.78729    1.000
    O4       O        0.28890    0.66650    0.60180    1.000
    O5       O        0.29730    0.56440    0.46690    1.000
    H27      H        0.33690    0.58670    0.50660    1.000
    C29      C        0.16040    0.62580    0.61890    1.000
    C30      C        0.07670    0.56250    0.55690    1.000
    C31      C        0.07270    0.47120    0.42900    1.000
    H28      H        0.12210    0.45170    0.38120    1.000
    C32      C        0.15070    0.53350    0.48440    1.000
    O6       O        0.09610    0.63240    0.68590    1.000
