# CIF file generated by openbabel 3.1.0, see https://openbabel.org
data_I
_chemical_name_common 'image0'
_cell_length_a 13.9335
_cell_length_b 14.102
_cell_length_c 24.5722
_cell_angle_alpha 90
_cell_angle_beta 90
_cell_angle_gamma 90
_space_group_name_H-M_alt 'P 1'
_space_group_name_Hall 'P 1'
loop_
    _symmetry_equiv_pos_as_xyz
    x,y,z
loop_
    _atom_site_label
    _atom_site_type_symbol
    _atom_site_fract_x
    _atom_site_fract_y
    _atom_site_fract_z
    _atom_site_occupancy
    Co1      Co       0.43012    0.09594    0.62672    1.000
    O1       O        0.30390    0.15730    0.59249    1.000
    O2       O        0.38110    0.05380    0.54455    1.000
    O3       O        0.08600    0.38210    0.48295    1.000
    O4       O        0.03840    0.33150    0.40122    1.000
    O5       O        0.46750    0.96310    0.64380    1.000
    O6       O        0.54110    0.92550    0.56599    1.000
    O7       O        0.55890    0.77550    0.80657    1.000
    O8       O        0.58540    0.62210    0.79436    1.000
    C1       C        0.25070    0.13250    0.50050    1.000
    C2       C        0.19690    0.21530    0.49686    1.000
    H1       H        0.19680    0.25820    0.52560    1.000
    C3       C        0.14340    0.23440    0.45045    1.000
    C4       C        0.14290    0.16880    0.40796    1.000
    H2       H        0.10750    0.18120    0.37660    1.000
    C5       C        0.19460    0.08600    0.41220    1.000
    H3       H        0.19260    0.04210    0.38400    1.000
    C6       C        0.24940    0.06730    0.45792    1.000
    H4       H        0.28510    0.01170    0.46020    1.000
    C7       C        0.31510    0.11460    0.54806    1.000
    C8       C        0.08470    0.32420    0.44506    1.000
    C9       C        0.55290    0.81860    0.63812    1.000
    C10      C        0.54670    0.80280    0.69384    1.000
    H5       H        0.51900    0.84850    0.71610    1.000
    C11      C        0.58150    0.71980    0.71656    1.000
    C12      C        0.62220    0.65160    0.68330    1.000
    H6       H        0.64530    0.59550    0.69820    1.000
    C13      C        0.62870    0.66730    0.62750    1.000
    H7       H        0.65550    0.62110    0.60520    1.000
    C14      C        0.59550    0.75110    0.60490    1.000
    H8       H        0.60170    0.76210    0.56780    1.000
    C15      C        0.51730    0.90940    0.61367    1.000
    C16      C        0.57480    0.70600    0.77724    1.000
    Co2      Co       0.06988    0.90406    0.12672    1.000
    O9       O        0.19610    0.84270    0.09249    1.000
    O10      O        0.11890    0.94620    0.04455    1.000
    O11      O        0.41400    0.61790    0.98295    1.000
    O12      O        0.46160    0.66850    0.90122    1.000
    O13      O        0.03250    0.03690    0.14380    1.000
    O14      O        0.95890    0.07450    0.06599    1.000
    O15      O        0.94110    0.22450    0.30657    1.000
    O16      O        0.91460    0.37790    0.29436    1.000
    C17      C        0.24930    0.86750    0.00050    1.000
    C18      C        0.30310    0.78470    0.99686    1.000
    H9       H        0.30320    0.74180    0.02560    1.000
    C19      C        0.35660    0.76560    0.95045    1.000
    C20      C        0.35710    0.83120    0.90796    1.000
    H10      H        0.39250    0.81880    0.87660    1.000
    C21      C        0.30540    0.91400    0.91220    1.000
    H11      H        0.30740    0.95790    0.88400    1.000
    C22      C        0.25060    0.93270    0.95792    1.000
    H12      H        0.21490    0.98830    0.96020    1.000
    C23      C        0.18490    0.88540    0.04806    1.000
    C24      C        0.41530    0.67580    0.94506    1.000
    C25      C        0.94710    0.18140    0.13812    1.000
    C26      C        0.95330    0.19720    0.19384    1.000
    H13      H        0.98100    0.15150    0.21610    1.000
    C27      C        0.91850    0.28020    0.21656    1.000
    C28      C        0.87780    0.34840    0.18330    1.000
    H14      H        0.85470    0.40450    0.19820    1.000
    C29      C        0.87130    0.33270    0.12750    1.000
    H15      H        0.84450    0.37890    0.10520    1.000
    C30      C        0.90450    0.24890    0.10490    1.000
    H16      H        0.89830    0.23790    0.06780    1.000
    C31      C        0.98270    0.09060    0.11367    1.000
    C32      C        0.92520    0.29400    0.27724    1.000
    Co3      Co       0.56988    0.59594    0.87328    1.000
    O17      O        0.69610    0.65730    0.90751    1.000
    O18      O        0.61890    0.55380    0.95545    1.000
    O19      O        0.91400    0.88210    0.01705    1.000
    O20      O        0.96160    0.83150    0.09878    1.000
    O21      O        0.53250    0.46310    0.85620    1.000
    O22      O        0.45890    0.42550    0.93401    1.000
    O23      O        0.44110    0.27550    0.69343    1.000
    O24      O        0.41460    0.12210    0.70564    1.000
    C33      C        0.74930    0.63250    0.99950    1.000
    C34      C        0.80310    0.71530    0.00314    1.000
    H17      H        0.80320    0.75820    0.97440    1.000
    C35      C        0.85660    0.73440    0.04955    1.000
    C36      C        0.85710    0.66880    0.09204    1.000
    H18      H        0.89250    0.68120    0.12340    1.000
    C37      C        0.80540    0.58600    0.08780    1.000
    H19      H        0.80740    0.54210    0.11600    1.000
    C38      C        0.75060    0.56730    0.04208    1.000
    H20      H        0.71490    0.51170    0.03980    1.000
    C39      C        0.68490    0.61460    0.95194    1.000
    C40      C        0.91530    0.82420    0.05494    1.000
    C41      C        0.44710    0.31860    0.86188    1.000
    C42      C        0.45330    0.30280    0.80616    1.000
    H21      H        0.48100    0.34850    0.78390    1.000
    C43      C        0.41850    0.21980    0.78344    1.000
    C44      C        0.37780    0.15160    0.81670    1.000
    H22      H        0.35470    0.09550    0.80180    1.000
    C45      C        0.37130    0.16730    0.87250    1.000
    H23      H        0.34450    0.12110    0.89480    1.000
    C46      C        0.40450    0.25110    0.89510    1.000
    H24      H        0.39830    0.26210    0.93220    1.000
    C47      C        0.48270    0.40940    0.88633    1.000
    C48      C        0.42520    0.20600    0.72276    1.000
    Co4      Co       0.93012    0.40406    0.37328    1.000
    O25      O        0.80390    0.34270    0.40751    1.000
    O26      O        0.88110    0.44620    0.45545    1.000
    O27      O        0.58600    0.11790    0.51705    1.000
    O28      O        0.53840    0.16850    0.59878    1.000
    O29      O        0.96750    0.53690    0.35620    1.000
    O30      O        0.04110    0.57450    0.43401    1.000
    O31      O        0.05890    0.72450    0.19343    1.000
    O32      O        0.08540    0.87790    0.20564    1.000
    C49      C        0.75070    0.36750    0.49950    1.000
    C50      C        0.69690    0.28470    0.50314    1.000
    H25      H        0.69680    0.24180    0.47440    1.000
    C51      C        0.64340    0.26560    0.54955    1.000
    C52      C        0.64290    0.33120    0.59204    1.000
    H26      H        0.60750    0.31880    0.62340    1.000
    C53      C        0.69460    0.41400    0.58780    1.000
    H27      H        0.69260    0.45790    0.61600    1.000
    C54      C        0.74940    0.43270    0.54208    1.000
    H28      H        0.78510    0.48830    0.53980    1.000
    C55      C        0.81510    0.38540    0.45194    1.000
    C56      C        0.58470    0.17580    0.55494    1.000
    C57      C        0.05290    0.68140    0.36188    1.000
    C58      C        0.04670    0.69720    0.30616    1.000
    H29      H        0.01900    0.65150    0.28390    1.000
    C59      C        0.08150    0.78020    0.28344    1.000
    C60      C        0.12220    0.84840    0.31670    1.000
    H30      H        0.14530    0.90450    0.30180    1.000
    C61      C        0.12870    0.83270    0.37250    1.000
    H31      H        0.15550    0.87890    0.39480    1.000
    C62      C        0.09550    0.74890    0.39510    1.000
    H32      H        0.10170    0.73790    0.43220    1.000
    C63      C        0.01730    0.59060    0.38633    1.000
    C64      C        0.07480    0.79400    0.22276    1.000
    Co5      Co       0.56988    0.90406    0.37328    1.000
    O33      O        0.69610    0.84270    0.40751    1.000
    O34      O        0.61890    0.94620    0.45545    1.000
    O35      O        0.91400    0.61790    0.51705    1.000
    O36      O        0.96160    0.66850    0.59878    1.000
    O37      O        0.53250    0.03690    0.35620    1.000
    O38      O        0.45890    0.07450    0.43401    1.000
    O39      O        0.44110    0.22450    0.19343    1.000
    O40      O        0.41460    0.37790    0.20564    1.000
    C65      C        0.74930    0.86750    0.49950    1.000
    C66      C        0.80310    0.78470    0.50314    1.000
    H33      H        0.80320    0.74180    0.47440    1.000
    C67      C        0.85660    0.76560    0.54955    1.000
    C68      C        0.85710    0.83120    0.59204    1.000
    H34      H        0.89250    0.81880    0.62340    1.000
    C69      C        0.80540    0.91400    0.58780    1.000
    H35      H        0.80740    0.95790    0.61600    1.000
    C70      C        0.75060    0.93270    0.54208    1.000
    H36      H        0.71490    0.98830    0.53980    1.000
    C71      C        0.68490    0.88540    0.45194    1.000
    C72      C        0.91530    0.67580    0.55494    1.000
    C73      C        0.44710    0.18140    0.36188    1.000
    C74      C        0.45330    0.19720    0.30616    1.000
    H37      H        0.48100    0.15150    0.28390    1.000
    C75      C        0.41850    0.28020    0.28344    1.000
    C76      C        0.37780    0.34840    0.31670    1.000
    H38      H        0.35470    0.40450    0.30180    1.000
    C77      C        0.37130    0.33270    0.37250    1.000
    H39      H        0.34450    0.37890    0.39480    1.000
    C78      C        0.40450    0.24890    0.39510    1.000
    H40      H        0.39830    0.23790    0.43220    1.000
    C79      C        0.48270    0.09060    0.38633    1.000
    C80      C        0.42520    0.29400    0.22276    1.000
    Co6      Co       0.93012    0.09594    0.87328    1.000
    O41      O        0.80390    0.15730    0.90751    1.000
    O42      O        0.88110    0.05380    0.95545    1.000
    O43      O        0.58600    0.38210    0.01705    1.000
    O44      O        0.53840    0.33150    0.09878    1.000
    O45      O        0.96750    0.96310    0.85620    1.000
    O46      O        0.04110    0.92550    0.93401    1.000
    O47      O        0.05890    0.77550    0.69343    1.000
    O48      O        0.08540    0.62210    0.70564    1.000
    C81      C        0.75070    0.13250    0.99950    1.000
    C82      C        0.69690    0.21530    0.00314    1.000
    H41      H        0.69680    0.25820    0.97440    1.000
    C83      C        0.64340    0.23440    0.04955    1.000
    C84      C        0.64290    0.16880    0.09204    1.000
    H42      H        0.60750    0.18120    0.12340    1.000
    C85      C        0.69460    0.08600    0.08780    1.000
    H43      H        0.69260    0.04210    0.11600    1.000
    C86      C        0.74940    0.06730    0.04208    1.000
    H44      H        0.78510    0.01170    0.03980    1.000
    C87      C        0.81510    0.11460    0.95194    1.000
    C88      C        0.58470    0.32420    0.05494    1.000
    C89      C        0.05290    0.81860    0.86188    1.000
    C90      C        0.04670    0.80280    0.80616    1.000
    H45      H        0.01900    0.84850    0.78390    1.000
    C91      C        0.08150    0.71980    0.78344    1.000
    C92      C        0.12220    0.65160    0.81670    1.000
    H46      H        0.14530    0.59550    0.80180    1.000
    C93      C        0.12870    0.66730    0.87250    1.000
    H47      H        0.15550    0.62110    0.89480    1.000
    C94      C        0.09550    0.75110    0.89510    1.000
    H48      H        0.10170    0.76210    0.93220    1.000
    C95      C        0.01730    0.90940    0.88633    1.000
    C96      C        0.07480    0.70600    0.72276    1.000
    Co7      Co       0.43012    0.40406    0.12672    1.000
    O49      O        0.30390    0.34270    0.09249    1.000
    O50      O        0.38110    0.44620    0.04455    1.000
    O51      O        0.08600    0.11790    0.98295    1.000
    O52      O        0.03840    0.16850    0.90122    1.000
    O53      O        0.46750    0.53690    0.14380    1.000
    O54      O        0.54110    0.57450    0.06599    1.000
    O55      O        0.55890    0.72450    0.30657    1.000
    O56      O        0.58540    0.87790    0.29436    1.000
    C97      C        0.25070    0.36750    0.00050    1.000
    C98      C        0.19690    0.28470    0.99686    1.000
    H49      H        0.19680    0.24180    0.02560    1.000
    C99      C        0.14340    0.26560    0.95045    1.000
    C100     C        0.14290    0.33120    0.90796    1.000
    H50      H        0.10750    0.31880    0.87660    1.000
    C101     C        0.19460    0.41400    0.91220    1.000
    H51      H        0.19260    0.45790    0.88400    1.000
    C102     C        0.24940    0.43270    0.95792    1.000
    H52      H        0.28510    0.48830    0.96020    1.000
    C103     C        0.31510    0.38540    0.04806    1.000
    C104     C        0.08470    0.17580    0.94506    1.000
    C105     C        0.55290    0.68140    0.13812    1.000
    C106     C        0.54670    0.69720    0.19384    1.000
    H53      H        0.51900    0.65150    0.21610    1.000
    C107     C        0.58150    0.78020    0.21656    1.000
    C108     C        0.62220    0.84840    0.18330    1.000
    H54      H        0.64530    0.90450    0.19820    1.000
    C109     C        0.62870    0.83270    0.12750    1.000
    H55      H        0.65550    0.87890    0.10520    1.000
    C110     C        0.59550    0.74890    0.10490    1.000
    H56      H        0.60170    0.73790    0.06780    1.000
    C111     C        0.51730    0.59060    0.11367    1.000
    C112     C        0.57480    0.79400    0.27724    1.000
    Co8      Co       0.06988    0.59594    0.62672    1.000
    O57      O        0.19610    0.65730    0.59249    1.000
    O58      O        0.11890    0.55380    0.54455    1.000
    O59      O        0.41400    0.88210    0.48295    1.000
    O60      O        0.46160    0.83150    0.40122    1.000
    O61      O        0.03250    0.46310    0.64380    1.000
    O62      O        0.95890    0.42550    0.56599    1.000
    O63      O        0.94110    0.27550    0.80657    1.000
    O64      O        0.91460    0.12210    0.79436    1.000
    C113     C        0.24930    0.63250    0.50050    1.000
    C114     C        0.30310    0.71530    0.49686    1.000
    H57      H        0.30320    0.75820    0.52560    1.000
    C115     C        0.35660    0.73440    0.45045    1.000
    C116     C        0.35710    0.66880    0.40796    1.000
    H58      H        0.39250    0.68120    0.37660    1.000
    C117     C        0.30540    0.58600    0.41220    1.000
    H59      H        0.30740    0.54210    0.38400    1.000
    C118     C        0.25060    0.56730    0.45792    1.000
    H60      H        0.21490    0.51170    0.46020    1.000
    C119     C        0.18490    0.61460    0.54806    1.000
    C120     C        0.41530    0.82420    0.44506    1.000
    C121     C        0.94710    0.31860    0.63812    1.000
    C122     C        0.95330    0.30280    0.69384    1.000
    H61      H        0.98100    0.34850    0.71610    1.000
    C123     C        0.91850    0.21980    0.71656    1.000
    C124     C        0.87780    0.15160    0.68330    1.000
    H62      H        0.85470    0.09550    0.69820    1.000
    C125     C        0.87130    0.16730    0.62750    1.000
    H63      H        0.84450    0.12110    0.60520    1.000
    C126     C        0.90450    0.25110    0.60490    1.000
    H64      H        0.89830    0.26210    0.56780    1.000
    C127     C        0.98270    0.40940    0.61367    1.000
    C128     C        0.92520    0.20600    0.77724    1.000
    Co9      Co       0.50000    0.00000    0.50000    1.000
    Co10     Co       0.00000    0.00000    0.00000    1.000
    Co11     Co       0.50000    0.50000    0.00000    1.000
    Co12     Co       0.00000    0.50000    0.50000    1.000
