# CIF file generated by openbabel 3.1.0, see https://openbabel.org
data_I
_chemical_name_common 'image0'
_cell_length_a 13.8166
_cell_length_b 21.7847
_cell_length_c 20.1414
_cell_angle_alpha 90
_cell_angle_beta 103.312
_cell_angle_gamma 90
_space_group_name_H-M_alt 'P 1'
_space_group_name_Hall 'P 1'
loop_
    _symmetry_equiv_pos_as_xyz
    x,y,z
loop_
    _atom_site_label
    _atom_site_type_symbol
    _atom_site_fract_x
    _atom_site_fract_y
    _atom_site_fract_z
    _atom_site_occupancy
    Zn1      Zn       0.84190    0.51560    0.15870    1.000
    Zn2      Zn       0.62940    0.48560    0.12800    1.000
    O1       O        0.83920    0.46520    0.24320    1.000
    O2       O        0.68210    0.43160    0.21020    1.000
    O3       O        0.81810    0.06790    0.60720    1.000
    O4       O        0.65520    0.08390    0.56700    1.000
    O5       O        0.56560    0.26450    0.37410    1.000
    O6       O        0.78920    0.55870    0.06780    1.000
    O7       O        0.62450    0.54570    0.05080    1.000
    O8       O        0.66720    0.93970    0.69190    1.000
    O9       O        0.82360    0.90600    0.70840    1.000
    O10      O        0.90420    0.70770    0.88130    1.000
    C1       C        0.76740    0.43160    0.24880    1.000
    C2       C        0.78500    0.38570    0.30620    1.000
    C3       C        0.88120    0.37510    0.34440    1.000
    H1       H        0.93440    0.39920    0.33580    1.000
    C4       C        0.90120    0.33050    0.39440    1.000
    H2       H        0.96710    0.32300    0.41970    1.000
    C5       C        0.82080    0.29690    0.40640    1.000
    C6       C        0.81880    0.24500    0.45360    1.000
    C7       C        0.89410    0.21460    0.49840    1.000
    H3       H        0.96160    0.22640    0.50340    1.000
    C8       C        0.86860    0.16630    0.53590    1.000
    H4       H        0.91960    0.14420    0.56620    1.000
    C9       C        0.76970    0.14930    0.53010    1.000
    C10      C        0.74550    0.09640    0.57140    1.000
    C11      C        0.69370    0.18020    0.48490    1.000
    H5       H        0.62620    0.16880    0.48040    1.000
    C12      C        0.71880    0.22770    0.44700    1.000
    C13      C        0.65440    0.26650    0.39340    1.000
    C14      C        0.72510    0.30850    0.36940    1.000
    C15      C        0.70600    0.35230    0.31890    1.000
    H6       H        0.64010    0.35940    0.29320    1.000
    C16      C        0.70070    0.56990    0.03770    1.000
    C17      C        0.68430    0.61630    0.98160    1.000
    C18      C        0.58780    0.63790    0.95440    1.000
    H7       H        0.53390    0.62150    0.97060    1.000
    C19      C        0.56950    0.68300    0.90430    1.000
    H8       H        0.50380    0.69730    0.88600    1.000
    C20      C        0.64960    0.70670    0.88150    1.000
    C21      C        0.65490    0.75590    0.83320    1.000
    C22      C        0.58070    0.79280    0.79470    1.000
    H9       H        0.51270    0.78650    0.79490    1.000
    C23      C        0.60940    0.83910    0.75600    1.000
    H10      H        0.56000    0.86510    0.72970    1.000
    C24      C        0.70930    0.84870    0.75460    1.000
    C25      C        0.73540    0.90190    0.71530    1.000
    C26      C        0.78270    0.80990    0.79090    1.000
    H11      H        0.85030    0.81490    0.78890    1.000
    C27      C        0.75510    0.76410    0.82960    1.000
    C28      C        0.81680    0.71770    0.87480    1.000
    C29      C        0.74650    0.68350    0.90840    1.000
    C30      C        0.76480    0.63950    0.95780    1.000
    H12      H        0.83040    0.62490    0.97570    1.000
    N1       N        0.48560    0.48723    0.13210    1.000
    C31      C        0.42160    0.52530    0.09070    1.000
    H13      H        0.44410    0.54890    0.05750    1.000
    C32      C        0.32370    0.53070    0.09570    1.000
    H14      H        0.27960    0.55710    0.06560    1.000
    C33      C        0.28980    0.49750    0.14500    1.000
    C34      C        0.35620    0.45860    0.18700    1.000
    H15      H        0.33530    0.43450    0.22050    1.000
    C35      C        0.45260    0.45500    0.17960    1.000
    H16      H        0.49780    0.42870    0.20920    1.000
    N2       N        0.98780    0.51377    0.16070    1.000
    C36      C        0.04030    0.45978    0.18030    1.000
    H17      H        0.00870    0.42610    0.19650    1.000
    C37      C        0.13900    0.45507    0.17600    1.000
    H18      H        0.17490    0.41820    0.18930    1.000
    C38      C        0.18520    0.50435    0.15210    1.000
    C39      C        0.13280    0.55833    0.13260    1.000
    H19      H        0.16440    0.59200    0.11630    1.000
    C40      C        0.03410    0.56304    0.13690    1.000
    H20      H        0.99820    0.59990    0.12350    1.000
    N3       N        0.98700    0.51320    0.15410    1.000
    C41      C        0.06070    0.50230    0.21270    1.000
    H21      H        0.04380    0.49940    0.25570    1.000
    C42      C        0.15910    0.49580    0.20840    1.000
    H22      H        0.20950    0.48840    0.24840    1.000
    C43      C        0.18390    0.50020    0.14540    1.000
    C44      C        0.11020    0.51100    0.08690    1.000
    H23      H        0.12710    0.51400    0.04380    1.000
    C45      C        0.01170    0.51750    0.09120    1.000
    H24      H        0.96140    0.52490    0.05120    1.000
    Zn3      Zn       0.84190    0.98440    0.65870    1.000
    Zn4      Zn       0.62940    0.01440    0.62800    1.000
    O11      O        0.83920    0.03480    0.74320    1.000
    O12      O        0.68210    0.06840    0.71020    1.000
    O13      O        0.81810    0.43210    0.10720    1.000
    O14      O        0.65520    0.41610    0.06700    1.000
    O15      O        0.56560    0.23550    0.87410    1.000
    O16      O        0.78920    0.94130    0.56780    1.000
    O17      O        0.62450    0.95430    0.55080    1.000
    O18      O        0.66720    0.56030    0.19190    1.000
    O19      O        0.82360    0.59400    0.20840    1.000
    O20      O        0.90420    0.79230    0.38130    1.000
    C46      C        0.76740    0.06840    0.74880    1.000
    C47      C        0.78500    0.11430    0.80620    1.000
    C48      C        0.88120    0.12490    0.84440    1.000
    H25      H        0.93440    0.10080    0.83580    1.000
    C49      C        0.90120    0.16950    0.89440    1.000
    H26      H        0.96710    0.17700    0.91970    1.000
    C50      C        0.82080    0.20310    0.90640    1.000
    C51      C        0.81880    0.25500    0.95360    1.000
    C52      C        0.89410    0.28540    0.99840    1.000
    H27      H        0.96160    0.27360    0.00340    1.000
    C53      C        0.86860    0.33370    0.03590    1.000
    H28      H        0.91960    0.35580    0.06620    1.000
    C54      C        0.76970    0.35070    0.03010    1.000
    C55      C        0.74550    0.40360    0.07140    1.000
    C56      C        0.69370    0.31980    0.98490    1.000
    H29      H        0.62620    0.33120    0.98040    1.000
    C57      C        0.71880    0.27230    0.94700    1.000
    C58      C        0.65440    0.23350    0.89340    1.000
    C59      C        0.72510    0.19150    0.86940    1.000
    C60      C        0.70600    0.14770    0.81890    1.000
    H30      H        0.64010    0.14060    0.79320    1.000
    C61      C        0.70070    0.93010    0.53770    1.000
    C62      C        0.68430    0.88370    0.48160    1.000
    C63      C        0.58780    0.86210    0.45440    1.000
    H31      H        0.53390    0.87850    0.47060    1.000
    C64      C        0.56950    0.81700    0.40430    1.000
    H32      H        0.50380    0.80270    0.38600    1.000
    C65      C        0.64960    0.79330    0.38150    1.000
    C66      C        0.65490    0.74410    0.33320    1.000
    C67      C        0.58070    0.70720    0.29470    1.000
    H33      H        0.51270    0.71350    0.29490    1.000
    C68      C        0.60940    0.66090    0.25600    1.000
    H34      H        0.56000    0.63490    0.22970    1.000
    C69      C        0.70930    0.65130    0.25460    1.000
    C70      C        0.73540    0.59810    0.21530    1.000
    C71      C        0.78270    0.69010    0.29090    1.000
    H35      H        0.85030    0.68510    0.28890    1.000
    C72      C        0.75510    0.73590    0.32960    1.000
    C73      C        0.81680    0.78230    0.37480    1.000
    C74      C        0.74650    0.81650    0.40840    1.000
    C75      C        0.76480    0.86050    0.45780    1.000
    H36      H        0.83040    0.87510    0.47570    1.000
    N4       N        0.48560    0.01277    0.63210    1.000
    C76      C        0.42160    0.97470    0.59070    1.000
    H37      H        0.44410    0.95110    0.55750    1.000
    C77      C        0.32370    0.96930    0.59570    1.000
    H38      H        0.27960    0.94290    0.56560    1.000
    C78      C        0.28980    0.00250    0.64500    1.000
    C79      C        0.35620    0.04140    0.68700    1.000
    H39      H        0.33530    0.06550    0.72050    1.000
    C80      C        0.45260    0.04500    0.67960    1.000
    H40      H        0.49780    0.07130    0.70920    1.000
    N5       N        0.98780    0.98623    0.66070    1.000
    C81      C        0.04030    0.04022    0.68030    1.000
    H41      H        0.00870    0.07390    0.69650    1.000
    C82      C        0.13900    0.04493    0.67600    1.000
    H42      H        0.17490    0.08180    0.68930    1.000
    C83      C        0.18520    0.99565    0.65210    1.000
    C84      C        0.13280    0.94167    0.63260    1.000
    H43      H        0.16440    0.90800    0.61630    1.000
    C85      C        0.03410    0.93696    0.63690    1.000
    H44      H        0.99820    0.90010    0.62350    1.000
    N6       N        0.98700    0.98680    0.65410    1.000
    C86      C        0.06070    0.99770    0.71270    1.000
    H45      H        0.04380    0.00060    0.75570    1.000
    C87      C        0.15910    0.00420    0.70840    1.000
    H46      H        0.20950    0.01160    0.74840    1.000
    C88      C        0.18390    0.99980    0.64540    1.000
    C89      C        0.11020    0.98900    0.58690    1.000
    H47      H        0.12710    0.98600    0.54380    1.000
    C90      C        0.01170    0.98250    0.59120    1.000
    H48      H        0.96140    0.97510    0.55120    1.000
    Zn5      Zn       0.15810    0.01560    0.34130    1.000
    Zn6      Zn       0.37060    0.98560    0.37200    1.000
    O21      O        0.16080    0.96520    0.25680    1.000
    O22      O        0.31790    0.93160    0.28980    1.000
    O23      O        0.18190    0.56790    0.89280    1.000
    O24      O        0.34480    0.58390    0.93300    1.000
    O25      O        0.43440    0.76450    0.12590    1.000
    O26      O        0.21080    0.05870    0.43220    1.000
    O27      O        0.37550    0.04570    0.44920    1.000
    O28      O        0.33280    0.43970    0.80810    1.000
    O29      O        0.17640    0.40600    0.79160    1.000
    O30      O        0.09580    0.20770    0.61870    1.000
    C91      C        0.23260    0.93160    0.25120    1.000
    C92      C        0.21500    0.88570    0.19380    1.000
    C93      C        0.11880    0.87510    0.15560    1.000
    H49      H        0.06560    0.89920    0.16420    1.000
    C94      C        0.09880    0.83050    0.10560    1.000
    H50      H        0.03290    0.82300    0.08030    1.000
    C95      C        0.17920    0.79690    0.09360    1.000
    C96      C        0.18120    0.74500    0.04640    1.000
    C97      C        0.10590    0.71460    0.00160    1.000
    H51      H        0.03840    0.72640    0.99660    1.000
    C98      C        0.13140    0.66630    0.96410    1.000
    H52      H        0.08040    0.64420    0.93380    1.000
    C99      C        0.23030    0.64930    0.96990    1.000
    C100     C        0.25450    0.59640    0.92860    1.000
    C101     C        0.30630    0.68020    0.01510    1.000
    H53      H        0.37380    0.66880    0.01960    1.000
    C102     C        0.28120    0.72770    0.05300    1.000
    C103     C        0.34560    0.76650    0.10660    1.000
    C104     C        0.27490    0.80850    0.13060    1.000
    C105     C        0.29400    0.85230    0.18110    1.000
    H54      H        0.35990    0.85940    0.20680    1.000
    C106     C        0.29930    0.06990    0.46230    1.000
    C107     C        0.31570    0.11630    0.51840    1.000
    C108     C        0.41220    0.13790    0.54560    1.000
    H55      H        0.46610    0.12150    0.52940    1.000
    C109     C        0.43050    0.18300    0.59570    1.000
    H56      H        0.49620    0.19730    0.61400    1.000
    C110     C        0.35040    0.20670    0.61850    1.000
    C111     C        0.34510    0.25590    0.66680    1.000
    C112     C        0.41930    0.29280    0.70530    1.000
    H57      H        0.48730    0.28650    0.70510    1.000
    C113     C        0.39060    0.33910    0.74400    1.000
    H58      H        0.44000    0.36510    0.77030    1.000
    C114     C        0.29070    0.34870    0.74540    1.000
    C115     C        0.26460    0.40190    0.78470    1.000
    C116     C        0.21730    0.30990    0.70910    1.000
    H59      H        0.14970    0.31490    0.71110    1.000
    C117     C        0.24490    0.26410    0.67040    1.000
    C118     C        0.18320    0.21770    0.62520    1.000
    C119     C        0.25350    0.18350    0.59160    1.000
    C120     C        0.23520    0.13950    0.54220    1.000
    H60      H        0.16960    0.12490    0.52430    1.000
    N7       N        0.51440    0.98723    0.36790    1.000
    C121     C        0.57840    0.02530    0.40930    1.000
    H61      H        0.55590    0.04890    0.44250    1.000
    C122     C        0.67630    0.03070    0.40430    1.000
    H62      H        0.72040    0.05710    0.43440    1.000
    C123     C        0.71020    0.99750    0.35500    1.000
    C124     C        0.64380    0.95860    0.31300    1.000
    H63      H        0.66470    0.93450    0.27950    1.000
    C125     C        0.54740    0.95500    0.32040    1.000
    H64      H        0.50220    0.92870    0.29080    1.000
    N8       N        0.01220    0.01377    0.33930    1.000
    C126     C        0.95970    0.95978    0.31970    1.000
    H65      H        0.99130    0.92610    0.30350    1.000
    C127     C        0.86100    0.95507    0.32400    1.000
    H66      H        0.82510    0.91820    0.31070    1.000
    C128     C        0.81480    0.00435    0.34790    1.000
    C129     C        0.86720    0.05833    0.36740    1.000
    H67      H        0.83560    0.09200    0.38370    1.000
    C130     C        0.96590    0.06304    0.36310    1.000
    H68      H        0.00180    0.09990    0.37650    1.000
    N9       N        0.01300    0.01320    0.34590    1.000
    C131     C        0.93930    0.00230    0.28730    1.000
    H69      H        0.95620    0.99940    0.24430    1.000
    C132     C        0.84090    0.99580    0.29160    1.000
    H70      H        0.79050    0.98840    0.25160    1.000
    C133     C        0.81610    0.00020    0.35460    1.000
    C134     C        0.88980    0.01100    0.41310    1.000
    H71      H        0.87290    0.01400    0.45620    1.000
    C135     C        0.98830    0.01750    0.40880    1.000
    H72      H        0.03860    0.02490    0.44880    1.000
    Zn7      Zn       0.15810    0.48440    0.84130    1.000
    Zn8      Zn       0.37060    0.51440    0.87200    1.000
    O31      O        0.16080    0.53480    0.75680    1.000
    O32      O        0.31790    0.56840    0.78980    1.000
    O33      O        0.18190    0.93210    0.39280    1.000
    O34      O        0.34480    0.91610    0.43300    1.000
    O35      O        0.43440    0.73550    0.62590    1.000
    O36      O        0.21080    0.44130    0.93220    1.000
    O37      O        0.37550    0.45430    0.94920    1.000
    O38      O        0.33280    0.06030    0.30810    1.000
    O39      O        0.17640    0.09400    0.29160    1.000
    O40      O        0.09580    0.29230    0.11870    1.000
    C136     C        0.23260    0.56840    0.75120    1.000
    C137     C        0.21500    0.61430    0.69380    1.000
    C138     C        0.11880    0.62490    0.65560    1.000
    H73      H        0.06560    0.60080    0.66420    1.000
    C139     C        0.09880    0.66950    0.60560    1.000
    H74      H        0.03290    0.67700    0.58030    1.000
    C140     C        0.17920    0.70310    0.59360    1.000
    C141     C        0.18120    0.75500    0.54640    1.000
    C142     C        0.10590    0.78540    0.50160    1.000
    H75      H        0.03840    0.77360    0.49660    1.000
    C143     C        0.13140    0.83370    0.46410    1.000
    H76      H        0.08040    0.85580    0.43380    1.000
    C144     C        0.23030    0.85070    0.46990    1.000
    C145     C        0.25450    0.90360    0.42860    1.000
    C146     C        0.30630    0.81980    0.51510    1.000
    H77      H        0.37380    0.83120    0.51960    1.000
    C147     C        0.28120    0.77230    0.55300    1.000
    C148     C        0.34560    0.73350    0.60660    1.000
    C149     C        0.27490    0.69150    0.63060    1.000
    C150     C        0.29400    0.64770    0.68110    1.000
    H78      H        0.35990    0.64060    0.70680    1.000
    C151     C        0.29930    0.43010    0.96230    1.000
    C152     C        0.31570    0.38370    0.01840    1.000
    C153     C        0.41220    0.36210    0.04560    1.000
    H79      H        0.46610    0.37850    0.02940    1.000
    C154     C        0.43050    0.31700    0.09570    1.000
    H80      H        0.49620    0.30270    0.11400    1.000
    C155     C        0.35040    0.29330    0.11850    1.000
    C156     C        0.34510    0.24410    0.16680    1.000
    C157     C        0.41930    0.20720    0.20530    1.000
    H81      H        0.48730    0.21350    0.20510    1.000
    C158     C        0.39060    0.16090    0.24400    1.000
    H82      H        0.44000    0.13490    0.27030    1.000
    C159     C        0.29070    0.15130    0.24540    1.000
    C160     C        0.26460    0.09810    0.28470    1.000
    C161     C        0.21730    0.19010    0.20910    1.000
    H83      H        0.14970    0.18510    0.21110    1.000
    C162     C        0.24490    0.23590    0.17040    1.000
    C163     C        0.18320    0.28230    0.12520    1.000
    C164     C        0.25350    0.31650    0.09160    1.000
    C165     C        0.23520    0.36050    0.04220    1.000
    H84      H        0.16960    0.37510    0.02430    1.000
    N10      N        0.51440    0.51277    0.86790    1.000
    C166     C        0.57840    0.47470    0.90930    1.000
    H85      H        0.55590    0.45110    0.94250    1.000
    C167     C        0.67630    0.46930    0.90430    1.000
    H86      H        0.72040    0.44290    0.93440    1.000
    C168     C        0.71020    0.50250    0.85500    1.000
    C169     C        0.64380    0.54140    0.81300    1.000
    H87      H        0.66470    0.56550    0.77950    1.000
    C170     C        0.54740    0.54500    0.82040    1.000
    H88      H        0.50220    0.57130    0.79080    1.000
    N11      N        0.01220    0.48623    0.83930    1.000
    C171     C        0.95970    0.54022    0.81970    1.000
    H89      H        0.99130    0.57390    0.80350    1.000
    C172     C        0.86100    0.54493    0.82400    1.000
    H90      H        0.82510    0.58180    0.81070    1.000
    C173     C        0.81480    0.49565    0.84790    1.000
    C174     C        0.86720    0.44167    0.86740    1.000
    H91      H        0.83560    0.40800    0.88370    1.000
    C175     C        0.96590    0.43696    0.86310    1.000
    H92      H        0.00180    0.40010    0.87650    1.000
    N12      N        0.01300    0.48680    0.84590    1.000
    C176     C        0.93930    0.49770    0.78730    1.000
    H93      H        0.95620    0.50060    0.74430    1.000
    C177     C        0.84090    0.50420    0.79160    1.000
    H94      H        0.79050    0.51160    0.75160    1.000
    C178     C        0.81610    0.49980    0.85460    1.000
    C179     C        0.88980    0.48900    0.91310    1.000
    H95      H        0.87290    0.48600    0.95620    1.000
    C180     C        0.98830    0.48250    0.90880    1.000
    H96      H        0.03860    0.47510    0.94880    1.000
