# CIF file generated by openbabel 3.1.0, see https://openbabel.org
data_I
_chemical_name_common 'image0'
_cell_length_a 21.5669
_cell_length_b 21.5669
_cell_length_c 7.7969
_cell_angle_alpha 90
_cell_angle_beta 90
_cell_angle_gamma 120
_space_group_name_H-M_alt 'P 1'
_space_group_name_Hall 'P 1'
loop_
    _symmetry_equiv_pos_as_xyz
    x,y,z
loop_
    _atom_site_label
    _atom_site_type_symbol
    _atom_site_fract_x
    _atom_site_fract_y
    _atom_site_fract_z
    _atom_site_occupancy
    F1       F        0.40670    0.05394    0.52840    1.000
    F2       F        0.30760    0.99540    0.66980    1.000
    F3       F        0.36250    0.11042    0.65770    1.000
    O1       O        0.42226    0.00073    0.83780    1.000
    O2       O        0.50349    0.08603    0.14060    1.000
    N1       N        0.49523    0.42559    0.83560    1.000
    C1       C        0.48600    0.43260    0.66760    1.000
    H1       H        0.48040    0.47080    0.63240    1.000
    C2       C        0.48430    0.38610    0.54660    1.000
    H2       H        0.47730    0.39260    0.43190    1.000
    C3       C        0.49310    0.32880    0.59520    1.000
    C4       C        0.50470    0.37120    0.88220    1.000
    H3       H        0.51190    0.36610    0.99770    1.000
    C5       C        0.50430    0.32270    0.76800    1.000
    H4       H        0.51160    0.28600    0.80610    1.000
    C6       C        0.49040    0.27750    0.46450    1.000
    C7       C        0.44470    0.25960    0.32440    1.000
    H5       H        0.41780    0.28210    0.31070    1.000
    C8       C        0.43830    0.20970    0.20560    1.000
    H6       H        0.40590    0.19750    0.11560    1.000
    C9       C        0.48050    0.17700    0.21980    1.000
    C10      C        0.52920    0.19770    0.35630    1.000
    H7       H        0.55860    0.17780    0.36550    1.000
    C11      C        0.53430    0.24660    0.47690    1.000
    H8       H        0.56680    0.25920    0.56670    1.000
    C12      C        0.47410    0.12180    0.09690    1.000
    C13      C        0.43650    0.11200    0.93910    1.000
    H9       H        0.42620    0.14750    0.90760    1.000
    C14      C        0.41450    0.05500    0.83060    1.000
    C15      C        0.37380    0.05500    0.67110    1.000
    F4       F        0.94606    0.35276    0.52840    1.000
    F5       F        0.00460    0.31220    0.66980    1.000
    F6       F        0.88958    0.25208    0.65770    1.000
    O3       O        0.99927    0.42153    0.83780    1.000
    O4       O        0.91397    0.41746    0.14060    1.000
    N2       N        0.57441    0.06964    0.83560    1.000
    C16      C        0.56740    0.05340    0.66760    1.000
    H10      H        0.52920    0.00960    0.63240    1.000
    C17      C        0.61390    0.09820    0.54660    1.000
    H11      H        0.60740    0.08470    0.43190    1.000
    C18      C        0.67120    0.16430    0.59520    1.000
    C19      C        0.62880    0.13350    0.88220    1.000
    H12      H        0.63390    0.14580    0.99770    1.000
    C20      C        0.67730    0.18160    0.76800    1.000
    H13      H        0.71400    0.22560    0.80610    1.000
    C21      C        0.72250    0.21290    0.46450    1.000
    C22      C        0.74040    0.18510    0.32440    1.000
    H14      H        0.71790    0.13570    0.31070    1.000
    C23      C        0.79030    0.22860    0.20560    1.000
    H15      H        0.80250    0.20840    0.11560    1.000
    C24      C        0.82300    0.30350    0.21980    1.000
    C25      C        0.80230    0.33150    0.35630    1.000
    H16      H        0.82220    0.38080    0.36550    1.000
    C26      C        0.75340    0.28770    0.47690    1.000
    H17      H        0.74080    0.30760    0.56670    1.000
    C27      C        0.87820    0.35230    0.09690    1.000
    C28      C        0.88800    0.32450    0.93910    1.000
    H18      H        0.85250    0.27870    0.90760    1.000
    C29      C        0.94500    0.35950    0.83060    1.000
    C30      C        0.94500    0.31880    0.67110    1.000
    F7       F        0.64724    0.59330    0.52840    1.000
    F8       F        0.68780    0.69240    0.66980    1.000
    F9       F        0.74792    0.63750    0.65770    1.000
    O5       O        0.57847    0.57774    0.83780    1.000
    O6       O        0.58254    0.49651    0.14060    1.000
    N3       N        0.93036    0.50477    0.83560    1.000
    C31      C        0.94660    0.51400    0.66760    1.000
    H19      H        0.99040    0.51960    0.63240    1.000
    C32      C        0.90180    0.51570    0.54660    1.000
    H20      H        0.91530    0.52270    0.43190    1.000
    C33      C        0.83570    0.50690    0.59520    1.000
    C34      C        0.86650    0.49530    0.88220    1.000
    H21      H        0.85420    0.48810    0.99770    1.000
    C35      C        0.81840    0.49570    0.76800    1.000
    H22      H        0.77440    0.48840    0.80610    1.000
    C36      C        0.78710    0.50960    0.46450    1.000
    C37      C        0.81490    0.55530    0.32440    1.000
    H23      H        0.86430    0.58220    0.31070    1.000
    C38      C        0.77140    0.56170    0.20560    1.000
    H24      H        0.79160    0.59410    0.11560    1.000
    C39      C        0.69650    0.51950    0.21980    1.000
    C40      C        0.66850    0.47080    0.35630    1.000
    H25      H        0.61920    0.44140    0.36550    1.000
    C41      C        0.71230    0.46570    0.47690    1.000
    H26      H        0.69240    0.43320    0.56670    1.000
    C42      C        0.64770    0.52590    0.09690    1.000
    C43      C        0.67550    0.56350    0.93910    1.000
    H27      H        0.72130    0.57380    0.90760    1.000
    C44      C        0.64050    0.58550    0.83060    1.000
    C45      C        0.68120    0.62620    0.67110    1.000
    F10      F        0.59330    0.94606    0.47160    1.000
    F11      F        0.69240    0.00460    0.33020    1.000
    F12      F        0.63750    0.88958    0.34230    1.000
    O7       O        0.57774    0.99927    0.16220    1.000
    O8       O        0.49651    0.91397    0.85940    1.000
    N4       N        0.50477    0.57441    0.16440    1.000
    C46      C        0.51400    0.56740    0.33240    1.000
    H28      H        0.51960    0.52920    0.36760    1.000
    C47      C        0.51570    0.61390    0.45340    1.000
    H29      H        0.52270    0.60740    0.56810    1.000
    C48      C        0.50690    0.67120    0.40480    1.000
    C49      C        0.49530    0.62880    0.11780    1.000
    H30      H        0.48810    0.63390    0.00230    1.000
    C50      C        0.49570    0.67730    0.23200    1.000
    H31      H        0.48840    0.71400    0.19390    1.000
    C51      C        0.50960    0.72250    0.53550    1.000
    C52      C        0.55530    0.74040    0.67560    1.000
    H32      H        0.58220    0.71790    0.68930    1.000
    C53      C        0.56170    0.79030    0.79440    1.000
    H33      H        0.59410    0.80250    0.88440    1.000
    C54      C        0.51950    0.82300    0.78020    1.000
    C55      C        0.47080    0.80230    0.64370    1.000
    H34      H        0.44140    0.82220    0.63450    1.000
    C56      C        0.46570    0.75340    0.52310    1.000
    H35      H        0.43320    0.74080    0.43330    1.000
    C57      C        0.52590    0.87820    0.90310    1.000
    C58      C        0.56350    0.88800    0.06090    1.000
    H36      H        0.57380    0.85250    0.09240    1.000
    C59      C        0.58550    0.94500    0.16940    1.000
    C60      C        0.62620    0.94500    0.32890    1.000
    F13      F        0.05394    0.64724    0.47160    1.000
    F14      F        0.99540    0.68780    0.33020    1.000
    F15      F        0.11042    0.74792    0.34230    1.000
    O9       O        0.00073    0.57847    0.16220    1.000
    O10      O        0.08603    0.58254    0.85940    1.000
    N5       N        0.42559    0.93036    0.16440    1.000
    C61      C        0.43260    0.94660    0.33240    1.000
    H37      H        0.47080    0.99040    0.36760    1.000
    C62      C        0.38610    0.90180    0.45340    1.000
    H38      H        0.39260    0.91530    0.56810    1.000
    C63      C        0.32880    0.83570    0.40480    1.000
    C64      C        0.37120    0.86650    0.11780    1.000
    H39      H        0.36610    0.85420    0.00230    1.000
    C65      C        0.32270    0.81840    0.23200    1.000
    H40      H        0.28600    0.77440    0.19390    1.000
    C66      C        0.27750    0.78710    0.53550    1.000
    C67      C        0.25960    0.81490    0.67560    1.000
    H41      H        0.28210    0.86430    0.68930    1.000
    C68      C        0.20970    0.77140    0.79440    1.000
    H42      H        0.19750    0.79160    0.88440    1.000
    C69      C        0.17700    0.69650    0.78020    1.000
    C70      C        0.19770    0.66850    0.64370    1.000
    H43      H        0.17780    0.61920    0.63450    1.000
    C71      C        0.24660    0.71230    0.52310    1.000
    H44      H        0.25920    0.69240    0.43330    1.000
    C72      C        0.12180    0.64770    0.90310    1.000
    C73      C        0.11200    0.67550    0.06090    1.000
    H45      H        0.14750    0.72130    0.09240    1.000
    C74      C        0.05500    0.64050    0.16940    1.000
    C75      C        0.05500    0.68120    0.32890    1.000
    F16      F        0.35276    0.40670    0.47160    1.000
    F17      F        0.31220    0.30760    0.33020    1.000
    F18      F        0.25208    0.36250    0.34230    1.000
    O11      O        0.42153    0.42226    0.16220    1.000
    O12      O        0.41746    0.50349    0.85940    1.000
    N6       N        0.06964    0.49523    0.16440    1.000
    C76      C        0.05340    0.48600    0.33240    1.000
    H46      H        0.00960    0.48040    0.36760    1.000
    C77      C        0.09820    0.48430    0.45340    1.000
    H47      H        0.08470    0.47730    0.56810    1.000
    C78      C        0.16430    0.49310    0.40480    1.000
    C79      C        0.13350    0.50470    0.11780    1.000
    H48      H        0.14580    0.51190    0.00230    1.000
    C80      C        0.18160    0.50430    0.23200    1.000
    H49      H        0.22560    0.51160    0.19390    1.000
    C81      C        0.21290    0.49040    0.53550    1.000
    C82      C        0.18510    0.44470    0.67560    1.000
    H50      H        0.13570    0.41780    0.68930    1.000
    C83      C        0.22860    0.43830    0.79440    1.000
    H51      H        0.20840    0.40590    0.88440    1.000
    C84      C        0.30350    0.48050    0.78020    1.000
    C85      C        0.33150    0.52920    0.64370    1.000
    H52      H        0.38080    0.55860    0.63450    1.000
    C86      C        0.28770    0.53430    0.52310    1.000
    H53      H        0.30760    0.56680    0.43330    1.000
    C87      C        0.35230    0.47410    0.90310    1.000
    C88      C        0.32450    0.43650    0.06090    1.000
    H54      H        0.27870    0.42620    0.09240    1.000
    C89      C        0.35950    0.41450    0.16940    1.000
    C90      C        0.31880    0.37380    0.32890    1.000
    Cu1      Cu       0.50000    0.00000    0.00000    1.000
    Cu2      Cu       0.00000    0.50000    0.00000    1.000
    Cu3      Cu       0.50000    0.50000    0.00000    1.000
