# CIF file generated by openbabel 3.1.0, see https://openbabel.org
data_I
_chemical_name_common 'image0'
_cell_length_a 52.349
_cell_length_b 20.421
_cell_length_c 9.9111
_cell_angle_alpha 90
_cell_angle_beta 90
_cell_angle_gamma 90
_space_group_name_H-M_alt 'P 1'
_space_group_name_Hall 'P 1'
loop_
    _symmetry_equiv_pos_as_xyz
    x,y,z
loop_
    _atom_site_label
    _atom_site_type_symbol
    _atom_site_fract_x
    _atom_site_fract_y
    _atom_site_fract_z
    _atom_site_occupancy
    Co1      Co       0.46179    0.33956    0.16536    1.000
    O1       O        0.45939    0.41590    0.30966    1.000
    O2       O        0.46488    0.32349    0.41590    1.000
    O3       O        0.45887    0.41970    0.02899    1.000
    O4       O        0.46125    0.32708    0.92580    1.000
    N1       N        0.46447    0.73447    0.66330    1.000
    N2       N        0.50245    0.35057    0.15770    1.000
    N3       N        0.67086    0.42118    0.92970    1.000
    C1       C        0.46417    0.52428    0.66590    1.000
    C2       C        0.46423    0.48859    0.54510    1.000
    H1       H        0.46500    0.51090    0.46120    1.000
    C3       C        0.46317    0.42070    0.54780    1.000
    C4       C        0.46226    0.38771    0.66870    1.000
    H2       H        0.46180    0.34120    0.66990    1.000
    C5       C        0.46204    0.42282    0.79000    1.000
    C6       C        0.46314    0.49027    0.78760    1.000
    H3       H        0.46320    0.51390    0.87020    1.000
    C7       C        0.45481    0.69967    0.56060    1.000
    H4       H        0.44790    0.72260    0.48570    1.000
    C8       C        0.45444    0.63236    0.55860    1.000
    H5       H        0.44710    0.61010    0.48370    1.000
    C9       C        0.46458    0.59674    0.66450    1.000
    C10      C        0.47466    0.63277    0.77080    1.000
    H6       H        0.48170    0.61100    0.84690    1.000
    C11      C        0.47438    0.70063    0.76560    1.000
    H7       H        0.48170    0.72420    0.83870    1.000
    C12      C        0.46248    0.38401    0.41650    1.000
    C13      C        0.46058    0.38675    0.92190    1.000
    C14      C        0.58331    0.38646    0.11430    1.000
    H8       H        0.58990    0.40960    0.19490    1.000
    H9       H        0.59220    0.34390    0.10790    1.000
    C15      C        0.51239    0.41039    0.17660    1.000
    H10      H        0.50110    0.44510    0.19970    1.000
    C16      C        0.53805    0.42423    0.16430    1.000
    H11      H        0.54410    0.46760    0.17770    1.000
    C17      C        0.55503    0.37428    0.13220    1.000
    C18      C        0.54484    0.31281    0.11160    1.000
    H12      H        0.55570    0.27720    0.08920    1.000
    C19      C        0.51879    0.30309    0.12360    1.000
    H13      H        0.51220    0.26050    0.10670    1.000
    C20      C        0.58925    0.42629    0.99100    1.000
    H14      H        0.58300    0.47160    0.00370    1.000
    H15      H        0.58030    0.40730    0.91200    1.000
    C21      C        0.66043    0.45726    0.02560    1.000
    H16      H        0.67140    0.48180    0.08270    1.000
    C22      C        0.63421    0.46122    0.04740    1.000
    H17      H        0.62770    0.48720    0.11920    1.000
    C23      C        0.61766    0.42742    0.96490    1.000
    C24      C        0.62842    0.39156    0.86400    1.000
    H18      H        0.61790    0.36810    0.80290    1.000
    C25      C        0.65480    0.38918    0.85010    1.000
    H19      H        0.66170    0.36320    0.77960    1.000
    Co2      Co       0.46179    0.83956    0.66536    1.000
    O5       O        0.45939    0.91590    0.80966    1.000
    O6       O        0.46488    0.82349    0.91590    1.000
    O7       O        0.45887    0.91970    0.52899    1.000
    O8       O        0.46125    0.82708    0.42580    1.000
    N4       N        0.46447    0.23447    0.16330    1.000
    N5       N        0.50245    0.85057    0.65770    1.000
    N6       N        0.67086    0.92118    0.42970    1.000
    C26      C        0.46417    0.02428    0.16590    1.000
    C27      C        0.46423    0.98859    0.04510    1.000
    H20      H        0.46500    0.01090    0.96120    1.000
    C28      C        0.46317    0.92070    0.04780    1.000
    C29      C        0.46226    0.88771    0.16870    1.000
    H21      H        0.46180    0.84120    0.16990    1.000
    C30      C        0.46204    0.92282    0.29000    1.000
    C31      C        0.46314    0.99027    0.28760    1.000
    H22      H        0.46320    0.01390    0.37020    1.000
    C32      C        0.45481    0.19967    0.06060    1.000
    H23      H        0.44790    0.22260    0.98570    1.000
    C33      C        0.45444    0.13236    0.05860    1.000
    H24      H        0.44710    0.11010    0.98370    1.000
    C34      C        0.46458    0.09674    0.16450    1.000
    C35      C        0.47466    0.13277    0.27080    1.000
    H25      H        0.48170    0.11100    0.34690    1.000
    C36      C        0.47438    0.20063    0.26560    1.000
    H26      H        0.48170    0.22420    0.33870    1.000
    C37      C        0.46248    0.88401    0.91650    1.000
    C38      C        0.46058    0.88675    0.42190    1.000
    C39      C        0.58331    0.88646    0.61430    1.000
    H27      H        0.58990    0.90960    0.69490    1.000
    H28      H        0.59220    0.84390    0.60790    1.000
    C40      C        0.51239    0.91039    0.67660    1.000
    H29      H        0.50110    0.94510    0.69970    1.000
    C41      C        0.53805    0.92423    0.66430    1.000
    H30      H        0.54410    0.96760    0.67770    1.000
    C42      C        0.55503    0.87428    0.63220    1.000
    C43      C        0.54484    0.81281    0.61160    1.000
    H31      H        0.55570    0.77720    0.58920    1.000
    C44      C        0.51879    0.80309    0.62360    1.000
    H32      H        0.51220    0.76050    0.60670    1.000
    C45      C        0.58925    0.92629    0.49100    1.000
    H33      H        0.58300    0.97160    0.50370    1.000
    H34      H        0.58030    0.90730    0.41200    1.000
    C46      C        0.66043    0.95726    0.52560    1.000
    H35      H        0.67140    0.98180    0.58270    1.000
    C47      C        0.63421    0.96122    0.54740    1.000
    H36      H        0.62770    0.98720    0.61920    1.000
    C48      C        0.61766    0.92742    0.46490    1.000
    C49      C        0.62842    0.89156    0.36400    1.000
    H37      H        0.61790    0.86810    0.30290    1.000
    C50      C        0.65480    0.88918    0.35010    1.000
    H38      H        0.66170    0.86320    0.27960    1.000
    Co3      Co       0.96179    0.33956    0.66536    1.000
    O9       O        0.95939    0.41590    0.80966    1.000
    O10      O        0.96488    0.32349    0.91590    1.000
    O11      O        0.95887    0.41970    0.52899    1.000
    O12      O        0.96125    0.32708    0.42580    1.000
    N7       N        0.96447    0.73447    0.16330    1.000
    N8       N        0.00245    0.35057    0.65770    1.000
    N9       N        0.17086    0.42118    0.42970    1.000
    C51      C        0.96417    0.52428    0.16590    1.000
    C52      C        0.96423    0.48859    0.04510    1.000
    H39      H        0.96500    0.51090    0.96120    1.000
    C53      C        0.96317    0.42070    0.04780    1.000
    C54      C        0.96226    0.38771    0.16870    1.000
    H40      H        0.96180    0.34120    0.16990    1.000
    C55      C        0.96204    0.42282    0.29000    1.000
    C56      C        0.96314    0.49027    0.28760    1.000
    H41      H        0.96320    0.51390    0.37020    1.000
    C57      C        0.95481    0.69967    0.06060    1.000
    H42      H        0.94790    0.72260    0.98570    1.000
    C58      C        0.95444    0.63236    0.05860    1.000
    H43      H        0.94710    0.61010    0.98370    1.000
    C59      C        0.96458    0.59674    0.16450    1.000
    C60      C        0.97466    0.63277    0.27080    1.000
    H44      H        0.98170    0.61100    0.34690    1.000
    C61      C        0.97438    0.70063    0.26560    1.000
    H45      H        0.98170    0.72420    0.33870    1.000
    C62      C        0.96248    0.38401    0.91650    1.000
    C63      C        0.96058    0.38675    0.42190    1.000
    C64      C        0.08331    0.38646    0.61430    1.000
    H46      H        0.08990    0.40960    0.69490    1.000
    H47      H        0.09220    0.34390    0.60790    1.000
    C65      C        0.01239    0.41039    0.67660    1.000
    H48      H        0.00110    0.44510    0.69970    1.000
    C66      C        0.03805    0.42423    0.66430    1.000
    H49      H        0.04410    0.46760    0.67770    1.000
    C67      C        0.05503    0.37428    0.63220    1.000
    C68      C        0.04484    0.31281    0.61160    1.000
    H50      H        0.05570    0.27720    0.58920    1.000
    C69      C        0.01879    0.30309    0.62360    1.000
    H51      H        0.01220    0.26050    0.60670    1.000
    C70      C        0.08925    0.42629    0.49100    1.000
    H52      H        0.08300    0.47160    0.50370    1.000
    H53      H        0.08030    0.40730    0.41200    1.000
    C71      C        0.16043    0.45726    0.52560    1.000
    H54      H        0.17140    0.48180    0.58270    1.000
    C72      C        0.13421    0.46122    0.54740    1.000
    H55      H        0.12770    0.48720    0.61920    1.000
    C73      C        0.11766    0.42742    0.46490    1.000
    C74      C        0.12842    0.39156    0.36400    1.000
    H56      H        0.11790    0.36810    0.30290    1.000
    C75      C        0.15480    0.38918    0.35010    1.000
    H57      H        0.16170    0.36320    0.27960    1.000
    Co4      Co       0.96179    0.83956    0.16536    1.000
    O13      O        0.95939    0.91590    0.30966    1.000
    O14      O        0.96488    0.82349    0.41590    1.000
    O15      O        0.95887    0.91970    0.02899    1.000
    O16      O        0.96125    0.82708    0.92580    1.000
    N10      N        0.96447    0.23447    0.66330    1.000
    N11      N        0.00245    0.85057    0.15770    1.000
    N12      N        0.17086    0.92118    0.92970    1.000
    C76      C        0.96417    0.02428    0.66590    1.000
    C77      C        0.96423    0.98859    0.54510    1.000
    H58      H        0.96500    0.01090    0.46120    1.000
    C78      C        0.96317    0.92070    0.54780    1.000
    C79      C        0.96226    0.88771    0.66870    1.000
    H59      H        0.96180    0.84120    0.66990    1.000
    C80      C        0.96204    0.92282    0.79000    1.000
    C81      C        0.96314    0.99027    0.78760    1.000
    H60      H        0.96320    0.01390    0.87020    1.000
    C82      C        0.95481    0.19967    0.56060    1.000
    H61      H        0.94790    0.22260    0.48570    1.000
    C83      C        0.95444    0.13236    0.55860    1.000
    H62      H        0.94710    0.11010    0.48370    1.000
    C84      C        0.96458    0.09674    0.66450    1.000
    C85      C        0.97466    0.13277    0.77080    1.000
    H63      H        0.98170    0.11100    0.84690    1.000
    C86      C        0.97438    0.20063    0.76560    1.000
    H64      H        0.98170    0.22420    0.83870    1.000
    C87      C        0.96248    0.88401    0.41650    1.000
    C88      C        0.96058    0.88675    0.92190    1.000
    C89      C        0.08331    0.88646    0.11430    1.000
    H65      H        0.08990    0.90960    0.19490    1.000
    H66      H        0.09220    0.84390    0.10790    1.000
    C90      C        0.01239    0.91039    0.17660    1.000
    H67      H        0.00110    0.94510    0.19970    1.000
    C91      C        0.03805    0.92423    0.16430    1.000
    H68      H        0.04410    0.96760    0.17770    1.000
    C92      C        0.05503    0.87428    0.13220    1.000
    C93      C        0.04484    0.81281    0.11160    1.000
    H69      H        0.05570    0.77720    0.08920    1.000
    C94      C        0.01879    0.80309    0.12360    1.000
    H70      H        0.01220    0.76050    0.10670    1.000
    C95      C        0.08925    0.92629    0.99100    1.000
    H71      H        0.08300    0.97160    0.00370    1.000
    H72      H        0.08030    0.90730    0.91200    1.000
    C96      C        0.16043    0.95726    0.02560    1.000
    H73      H        0.17140    0.98180    0.08270    1.000
    C97      C        0.13421    0.96122    0.04740    1.000
    H74      H        0.12770    0.98720    0.11920    1.000
    C98      C        0.11766    0.92742    0.96490    1.000
    C99      C        0.12842    0.89156    0.86400    1.000
    H75      H        0.11790    0.86810    0.80290    1.000
    C100     C        0.15480    0.88918    0.85010    1.000
    H76      H        0.16170    0.86320    0.77960    1.000
    Co5      Co       0.71179    0.91044    0.41536    1.000
    O17      O        0.70939    0.83410    0.55966    1.000
    O18      O        0.71488    0.92651    0.66590    1.000
    O19      O        0.70887    0.83030    0.27899    1.000
    O20      O        0.71125    0.92292    0.17580    1.000
    N13      N        0.71447    0.51553    0.91330    1.000
    N14      N        0.75245    0.89943    0.40770    1.000
    N15      N        0.92086    0.82882    0.17970    1.000
    C101     C        0.71417    0.72572    0.91590    1.000
    C102     C        0.71423    0.76141    0.79510    1.000
    H77      H        0.71500    0.73910    0.71120    1.000
    C103     C        0.71317    0.82930    0.79780    1.000
    C104     C        0.71226    0.86229    0.91870    1.000
    H78      H        0.71180    0.90880    0.91990    1.000
    C105     C        0.71204    0.82718    0.04000    1.000
    C106     C        0.71314    0.75973    0.03760    1.000
    H79      H        0.71320    0.73610    0.12020    1.000
    C107     C        0.70481    0.55033    0.81060    1.000
    H80      H        0.69790    0.52740    0.73570    1.000
    C108     C        0.70444    0.61764    0.80860    1.000
    H81      H        0.69710    0.63990    0.73370    1.000
    C109     C        0.71458    0.65326    0.91450    1.000
    C110     C        0.72466    0.61723    0.02080    1.000
    H82      H        0.73170    0.63900    0.09690    1.000
    C111     C        0.72438    0.54937    0.01560    1.000
    H83      H        0.73170    0.52580    0.08870    1.000
    C112     C        0.71248    0.86599    0.66650    1.000
    C113     C        0.71058    0.86325    0.17190    1.000
    C114     C        0.83331    0.86354    0.36430    1.000
    H84      H        0.83990    0.84040    0.44490    1.000
    H85      H        0.84220    0.90610    0.35790    1.000
    C115     C        0.76239    0.83961    0.42660    1.000
    H86      H        0.75110    0.80490    0.44970    1.000
    C116     C        0.78805    0.82577    0.41430    1.000
    H87      H        0.79410    0.78240    0.42770    1.000
    C117     C        0.80503    0.87572    0.38220    1.000
    C118     C        0.79484    0.93719    0.36160    1.000
    H88      H        0.80570    0.97280    0.33920    1.000
    C119     C        0.76879    0.94691    0.37360    1.000
    H89      H        0.76220    0.98950    0.35670    1.000
    C120     C        0.83925    0.82371    0.24100    1.000
    H90      H        0.83300    0.77840    0.25370    1.000
    H91      H        0.83030    0.84270    0.16200    1.000
    C121     C        0.91043    0.79274    0.27560    1.000
    H92      H        0.92140    0.76820    0.33270    1.000
    C122     C        0.88421    0.78878    0.29740    1.000
    H93      H        0.87770    0.76280    0.36920    1.000
    C123     C        0.86766    0.82258    0.21490    1.000
    C124     C        0.87842    0.85844    0.11400    1.000
    H94      H        0.86790    0.88190    0.05290    1.000
    C125     C        0.90480    0.86082    0.10010    1.000
    H95      H        0.91170    0.88680    0.02960    1.000
    Co6      Co       0.71179    0.41044    0.91536    1.000
    O21      O        0.70939    0.33410    0.05966    1.000
    O22      O        0.71488    0.42651    0.16590    1.000
    O23      O        0.70887    0.33030    0.77899    1.000
    O24      O        0.71125    0.42292    0.67580    1.000
    N16      N        0.71447    0.01553    0.41330    1.000
    N17      N        0.75245    0.39943    0.90770    1.000
    N18      N        0.92086    0.32882    0.67970    1.000
    C126     C        0.71417    0.22572    0.41590    1.000
    C127     C        0.71423    0.26141    0.29510    1.000
    H96      H        0.71500    0.23910    0.21120    1.000
    C128     C        0.71317    0.32930    0.29780    1.000
    C129     C        0.71226    0.36229    0.41870    1.000
    H97      H        0.71180    0.40880    0.41990    1.000
    C130     C        0.71204    0.32718    0.54000    1.000
    C131     C        0.71314    0.25973    0.53760    1.000
    H98      H        0.71320    0.23610    0.62020    1.000
    C132     C        0.70481    0.05033    0.31060    1.000
    H99      H        0.69790    0.02740    0.23570    1.000
    C133     C        0.70444    0.11764    0.30860    1.000
    H100     H        0.69710    0.13990    0.23370    1.000
    C134     C        0.71458    0.15326    0.41450    1.000
    C135     C        0.72466    0.11723    0.52080    1.000
    H101     H        0.73170    0.13900    0.59690    1.000
    C136     C        0.72438    0.04937    0.51560    1.000
    H102     H        0.73170    0.02580    0.58870    1.000
    C137     C        0.71248    0.36599    0.16650    1.000
    C138     C        0.71058    0.36325    0.67190    1.000
    C139     C        0.83331    0.36354    0.86430    1.000
    H103     H        0.83990    0.34040    0.94490    1.000
    H104     H        0.84220    0.40610    0.85790    1.000
    C140     C        0.76239    0.33961    0.92660    1.000
    H105     H        0.75110    0.30490    0.94970    1.000
    C141     C        0.78805    0.32577    0.91430    1.000
    H106     H        0.79410    0.28240    0.92770    1.000
    C142     C        0.80503    0.37572    0.88220    1.000
    C143     C        0.79484    0.43719    0.86160    1.000
    H107     H        0.80570    0.47280    0.83920    1.000
    C144     C        0.76879    0.44691    0.87360    1.000
    H108     H        0.76220    0.48950    0.85670    1.000
    C145     C        0.83925    0.32371    0.74100    1.000
    H109     H        0.83300    0.27840    0.75370    1.000
    H110     H        0.83030    0.34270    0.66200    1.000
    C146     C        0.91043    0.29274    0.77560    1.000
    H111     H        0.92140    0.26820    0.83270    1.000
    C147     C        0.88421    0.28878    0.79740    1.000
    H112     H        0.87770    0.26280    0.86920    1.000
    C148     C        0.86766    0.32258    0.71490    1.000
    C149     C        0.87842    0.35844    0.61400    1.000
    H113     H        0.86790    0.38190    0.55290    1.000
    C150     C        0.90480    0.36082    0.60010    1.000
    H114     H        0.91170    0.38680    0.52960    1.000
    Co7      Co       0.21179    0.91044    0.91536    1.000
    O25      O        0.20939    0.83410    0.05966    1.000
    O26      O        0.21488    0.92651    0.16590    1.000
    O27      O        0.20887    0.83030    0.77899    1.000
    O28      O        0.21125    0.92292    0.67580    1.000
    N19      N        0.21447    0.51553    0.41330    1.000
    N20      N        0.25245    0.89943    0.90770    1.000
    N21      N        0.42086    0.82882    0.67970    1.000
    C151     C        0.21417    0.72572    0.41590    1.000
    C152     C        0.21423    0.76141    0.29510    1.000
    H115     H        0.21500    0.73910    0.21120    1.000
    C153     C        0.21317    0.82930    0.29780    1.000
    C154     C        0.21226    0.86229    0.41870    1.000
    H116     H        0.21180    0.90880    0.41990    1.000
    C155     C        0.21204    0.82718    0.54000    1.000
    C156     C        0.21314    0.75973    0.53760    1.000
    H117     H        0.21320    0.73610    0.62020    1.000
    C157     C        0.20481    0.55033    0.31060    1.000
    H118     H        0.19790    0.52740    0.23570    1.000
    C158     C        0.20444    0.61764    0.30860    1.000
    H119     H        0.19710    0.63990    0.23370    1.000
    C159     C        0.21458    0.65326    0.41450    1.000
    C160     C        0.22466    0.61723    0.52080    1.000
    H120     H        0.23170    0.63900    0.59690    1.000
    C161     C        0.22438    0.54937    0.51560    1.000
    H121     H        0.23170    0.52580    0.58870    1.000
    C162     C        0.21248    0.86599    0.16650    1.000
    C163     C        0.21058    0.86325    0.67190    1.000
    C164     C        0.33331    0.86354    0.86430    1.000
    H122     H        0.33990    0.84040    0.94490    1.000
    H123     H        0.34220    0.90610    0.85790    1.000
    C165     C        0.26239    0.83961    0.92660    1.000
    H124     H        0.25110    0.80490    0.94970    1.000
    C166     C        0.28805    0.82577    0.91430    1.000
    H125     H        0.29410    0.78240    0.92770    1.000
    C167     C        0.30503    0.87572    0.88220    1.000
    C168     C        0.29484    0.93719    0.86160    1.000
    H126     H        0.30570    0.97280    0.83920    1.000
    C169     C        0.26879    0.94691    0.87360    1.000
    H127     H        0.26220    0.98950    0.85670    1.000
    C170     C        0.33925    0.82371    0.74100    1.000
    H128     H        0.33300    0.77840    0.75370    1.000
    H129     H        0.33030    0.84270    0.66200    1.000
    C171     C        0.41043    0.79274    0.77560    1.000
    H130     H        0.42140    0.76820    0.83270    1.000
    C172     C        0.38421    0.78878    0.79740    1.000
    H131     H        0.37770    0.76280    0.86920    1.000
    C173     C        0.36766    0.82258    0.71490    1.000
    C174     C        0.37842    0.85844    0.61400    1.000
    H132     H        0.36790    0.88190    0.55290    1.000
    C175     C        0.40480    0.86082    0.60010    1.000
    H133     H        0.41170    0.88680    0.52960    1.000
    Co8      Co       0.21179    0.41044    0.41536    1.000
    O29      O        0.20939    0.33410    0.55966    1.000
    O30      O        0.21488    0.42651    0.66590    1.000
    O31      O        0.20887    0.33030    0.27899    1.000
    O32      O        0.21125    0.42292    0.17580    1.000
    N22      N        0.21447    0.01553    0.91330    1.000
    N23      N        0.25245    0.39943    0.40770    1.000
    N24      N        0.42086    0.32882    0.17970    1.000
    C176     C        0.21417    0.22572    0.91590    1.000
    C177     C        0.21423    0.26141    0.79510    1.000
    H134     H        0.21500    0.23910    0.71120    1.000
    C178     C        0.21317    0.32930    0.79780    1.000
    C179     C        0.21226    0.36229    0.91870    1.000
    H135     H        0.21180    0.40880    0.91990    1.000
    C180     C        0.21204    0.32718    0.04000    1.000
    C181     C        0.21314    0.25973    0.03760    1.000
    H136     H        0.21320    0.23610    0.12020    1.000
    C182     C        0.20481    0.05033    0.81060    1.000
    H137     H        0.19790    0.02740    0.73570    1.000
    C183     C        0.20444    0.11764    0.80860    1.000
    H138     H        0.19710    0.13990    0.73370    1.000
    C184     C        0.21458    0.15326    0.91450    1.000
    C185     C        0.22466    0.11723    0.02080    1.000
    H139     H        0.23170    0.13900    0.09690    1.000
    C186     C        0.22438    0.04937    0.01560    1.000
    H140     H        0.23170    0.02580    0.08870    1.000
    C187     C        0.21248    0.36599    0.66650    1.000
    C188     C        0.21058    0.36325    0.17190    1.000
    C189     C        0.33331    0.36354    0.36430    1.000
    H141     H        0.33990    0.34040    0.44490    1.000
    H142     H        0.34220    0.40610    0.35790    1.000
    C190     C        0.26239    0.33961    0.42660    1.000
    H143     H        0.25110    0.30490    0.44970    1.000
    C191     C        0.28805    0.32577    0.41430    1.000
    H144     H        0.29410    0.28240    0.42770    1.000
    C192     C        0.30503    0.37572    0.38220    1.000
    C193     C        0.29484    0.43719    0.36160    1.000
    H145     H        0.30570    0.47280    0.33920    1.000
    C194     C        0.26879    0.44691    0.37360    1.000
    H146     H        0.26220    0.48950    0.35670    1.000
    C195     C        0.33925    0.32371    0.24100    1.000
    H147     H        0.33300    0.27840    0.25370    1.000
    H148     H        0.33030    0.34270    0.16200    1.000
    C196     C        0.41043    0.29274    0.27560    1.000
    H149     H        0.42140    0.26820    0.33270    1.000
    C197     C        0.38421    0.28878    0.29740    1.000
    H150     H        0.37770    0.26280    0.36920    1.000
    C198     C        0.36766    0.32258    0.21490    1.000
    C199     C        0.37842    0.35844    0.11400    1.000
    H151     H        0.36790    0.38190    0.05290    1.000
    C200     C        0.40480    0.36082    0.10010    1.000
    H152     H        0.41170    0.38680    0.02960    1.000
    Co9      Co       0.53821    0.66044    0.16536    1.000
    O33      O        0.54061    0.58410    0.30966    1.000
    O34      O        0.53512    0.67651    0.41590    1.000
    O35      O        0.54113    0.58030    0.02899    1.000
    O36      O        0.53875    0.67292    0.92580    1.000
    N25      N        0.53553    0.26553    0.66330    1.000
    N26      N        0.49755    0.64943    0.15770    1.000
    N27      N        0.32914    0.57882    0.92970    1.000
    C201     C        0.53583    0.47572    0.66590    1.000
    C202     C        0.53577    0.51141    0.54510    1.000
    H153     H        0.53500    0.48910    0.46120    1.000
    C203     C        0.53683    0.57930    0.54780    1.000
    C204     C        0.53774    0.61229    0.66870    1.000
    H154     H        0.53820    0.65880    0.66990    1.000
    C205     C        0.53796    0.57718    0.79000    1.000
    C206     C        0.53686    0.50973    0.78760    1.000
    H155     H        0.53680    0.48610    0.87020    1.000
    C207     C        0.54519    0.30033    0.56060    1.000
    H156     H        0.55210    0.27740    0.48570    1.000
    C208     C        0.54556    0.36764    0.55860    1.000
    H157     H        0.55290    0.38990    0.48370    1.000
    C209     C        0.53542    0.40326    0.66450    1.000
    C210     C        0.52534    0.36723    0.77080    1.000
    H158     H        0.51830    0.38900    0.84690    1.000
    C211     C        0.52562    0.29937    0.76560    1.000
    H159     H        0.51830    0.27580    0.83870    1.000
    C212     C        0.53752    0.61599    0.41650    1.000
    C213     C        0.53942    0.61325    0.92190    1.000
    C214     C        0.41669    0.61354    0.11430    1.000
    H160     H        0.41010    0.59040    0.19490    1.000
    H161     H        0.40780    0.65610    0.10790    1.000
    C215     C        0.48761    0.58961    0.17660    1.000
    H162     H        0.49890    0.55490    0.19970    1.000
    C216     C        0.46195    0.57577    0.16430    1.000
    H163     H        0.45590    0.53240    0.17770    1.000
    C217     C        0.44497    0.62572    0.13220    1.000
    C218     C        0.45516    0.68719    0.11160    1.000
    H164     H        0.44430    0.72280    0.08920    1.000
    C219     C        0.48121    0.69691    0.12360    1.000
    H165     H        0.48780    0.73950    0.10670    1.000
    C220     C        0.41075    0.57371    0.99100    1.000
    H166     H        0.41700    0.52840    0.00370    1.000
    H167     H        0.41970    0.59270    0.91200    1.000
    C221     C        0.33957    0.54274    0.02560    1.000
    H168     H        0.32860    0.51820    0.08270    1.000
    C222     C        0.36579    0.53878    0.04740    1.000
    H169     H        0.37230    0.51280    0.11920    1.000
    C223     C        0.38234    0.57258    0.96490    1.000
    C224     C        0.37158    0.60844    0.86400    1.000
    H170     H        0.38210    0.63190    0.80290    1.000
    C225     C        0.34520    0.61082    0.85010    1.000
    H171     H        0.33830    0.63680    0.77960    1.000
    Co10     Co       0.53821    0.16044    0.66536    1.000
    O37      O        0.54061    0.08410    0.80966    1.000
    O38      O        0.53512    0.17651    0.91590    1.000
    O39      O        0.54113    0.08030    0.52899    1.000
    O40      O        0.53875    0.17292    0.42580    1.000
    N28      N        0.53553    0.76553    0.16330    1.000
    N29      N        0.49755    0.14943    0.65770    1.000
    N30      N        0.32914    0.07882    0.42970    1.000
    C226     C        0.53583    0.97572    0.16590    1.000
    C227     C        0.53577    0.01141    0.04510    1.000
    H172     H        0.53500    0.98910    0.96120    1.000
    C228     C        0.53683    0.07930    0.04780    1.000
    C229     C        0.53774    0.11229    0.16870    1.000
    H173     H        0.53820    0.15880    0.16990    1.000
    C230     C        0.53796    0.07718    0.29000    1.000
    C231     C        0.53686    0.00973    0.28760    1.000
    H174     H        0.53680    0.98610    0.37020    1.000
    C232     C        0.54519    0.80033    0.06060    1.000
    H175     H        0.55210    0.77740    0.98570    1.000
    C233     C        0.54556    0.86764    0.05860    1.000
    H176     H        0.55290    0.88990    0.98370    1.000
    C234     C        0.53542    0.90326    0.16450    1.000
    C235     C        0.52534    0.86723    0.27080    1.000
    H177     H        0.51830    0.88900    0.34690    1.000
    C236     C        0.52562    0.79937    0.26560    1.000
    H178     H        0.51830    0.77580    0.33870    1.000
    C237     C        0.53752    0.11599    0.91650    1.000
    C238     C        0.53942    0.11325    0.42190    1.000
    C239     C        0.41669    0.11354    0.61430    1.000
    H179     H        0.41010    0.09040    0.69490    1.000
    H180     H        0.40780    0.15610    0.60790    1.000
    C240     C        0.48761    0.08961    0.67660    1.000
    H181     H        0.49890    0.05490    0.69970    1.000
    C241     C        0.46195    0.07577    0.66430    1.000
    H182     H        0.45590    0.03240    0.67770    1.000
    C242     C        0.44497    0.12572    0.63220    1.000
    C243     C        0.45516    0.18719    0.61160    1.000
    H183     H        0.44430    0.22280    0.58920    1.000
    C244     C        0.48121    0.19691    0.62360    1.000
    H184     H        0.48780    0.23950    0.60670    1.000
    C245     C        0.41075    0.07371    0.49100    1.000
    H185     H        0.41700    0.02840    0.50370    1.000
    H186     H        0.41970    0.09270    0.41200    1.000
    C246     C        0.33957    0.04274    0.52560    1.000
    H187     H        0.32860    0.01820    0.58270    1.000
    C247     C        0.36579    0.03878    0.54740    1.000
    H188     H        0.37230    0.01280    0.61920    1.000
    C248     C        0.38234    0.07258    0.46490    1.000
    C249     C        0.37158    0.10844    0.36400    1.000
    H189     H        0.38210    0.13190    0.30290    1.000
    C250     C        0.34520    0.11082    0.35010    1.000
    H190     H        0.33830    0.13680    0.27960    1.000
    Co11     Co       0.03821    0.66044    0.66536    1.000
    O41      O        0.04061    0.58410    0.80966    1.000
    O42      O        0.03512    0.67651    0.91590    1.000
    O43      O        0.04113    0.58030    0.52899    1.000
    O44      O        0.03875    0.67292    0.42580    1.000
    N31      N        0.03553    0.26553    0.16330    1.000
    N32      N        0.99755    0.64943    0.65770    1.000
    N33      N        0.82914    0.57882    0.42970    1.000
    C251     C        0.03583    0.47572    0.16590    1.000
    C252     C        0.03577    0.51141    0.04510    1.000
    H191     H        0.03500    0.48910    0.96120    1.000
    C253     C        0.03683    0.57930    0.04780    1.000
    C254     C        0.03774    0.61229    0.16870    1.000
    H192     H        0.03820    0.65880    0.16990    1.000
    C255     C        0.03796    0.57718    0.29000    1.000
    C256     C        0.03686    0.50973    0.28760    1.000
    H193     H        0.03680    0.48610    0.37020    1.000
    C257     C        0.04519    0.30033    0.06060    1.000
    H194     H        0.05210    0.27740    0.98570    1.000
    C258     C        0.04556    0.36764    0.05860    1.000
    H195     H        0.05290    0.38990    0.98370    1.000
    C259     C        0.03542    0.40326    0.16450    1.000
    C260     C        0.02534    0.36723    0.27080    1.000
    H196     H        0.01830    0.38900    0.34690    1.000
    C261     C        0.02562    0.29937    0.26560    1.000
    H197     H        0.01830    0.27580    0.33870    1.000
    C262     C        0.03752    0.61599    0.91650    1.000
    C263     C        0.03942    0.61325    0.42190    1.000
    C264     C        0.91669    0.61354    0.61430    1.000
    H198     H        0.91010    0.59040    0.69490    1.000
    H199     H        0.90780    0.65610    0.60790    1.000
    C265     C        0.98761    0.58961    0.67660    1.000
    H200     H        0.99890    0.55490    0.69970    1.000
    C266     C        0.96195    0.57577    0.66430    1.000
    H201     H        0.95590    0.53240    0.67770    1.000
    C267     C        0.94497    0.62572    0.63220    1.000
    C268     C        0.95516    0.68719    0.61160    1.000
    H202     H        0.94430    0.72280    0.58920    1.000
    C269     C        0.98121    0.69691    0.62360    1.000
    H203     H        0.98780    0.73950    0.60670    1.000
    C270     C        0.91075    0.57371    0.49100    1.000
    H204     H        0.91700    0.52840    0.50370    1.000
    H205     H        0.91970    0.59270    0.41200    1.000
    C271     C        0.83957    0.54274    0.52560    1.000
    H206     H        0.82860    0.51820    0.58270    1.000
    C272     C        0.86579    0.53878    0.54740    1.000
    H207     H        0.87230    0.51280    0.61920    1.000
    C273     C        0.88234    0.57258    0.46490    1.000
    C274     C        0.87158    0.60844    0.36400    1.000
    H208     H        0.88210    0.63190    0.30290    1.000
    C275     C        0.84520    0.61082    0.35010    1.000
    H209     H        0.83830    0.63680    0.27960    1.000
    Co12     Co       0.03821    0.16044    0.16536    1.000
    O45      O        0.04061    0.08410    0.30966    1.000
    O46      O        0.03512    0.17651    0.41590    1.000
    O47      O        0.04113    0.08030    0.02899    1.000
    O48      O        0.03875    0.17292    0.92580    1.000
    N34      N        0.03553    0.76553    0.66330    1.000
    N35      N        0.99755    0.14943    0.15770    1.000
    N36      N        0.82914    0.07882    0.92970    1.000
    C276     C        0.03583    0.97572    0.66590    1.000
    C277     C        0.03577    0.01141    0.54510    1.000
    H210     H        0.03500    0.98910    0.46120    1.000
    C278     C        0.03683    0.07930    0.54780    1.000
    C279     C        0.03774    0.11229    0.66870    1.000
    H211     H        0.03820    0.15880    0.66990    1.000
    C280     C        0.03796    0.07718    0.79000    1.000
    C281     C        0.03686    0.00973    0.78760    1.000
    H212     H        0.03680    0.98610    0.87020    1.000
    C282     C        0.04519    0.80033    0.56060    1.000
    H213     H        0.05210    0.77740    0.48570    1.000
    C283     C        0.04556    0.86764    0.55860    1.000
    H214     H        0.05290    0.88990    0.48370    1.000
    C284     C        0.03542    0.90326    0.66450    1.000
    C285     C        0.02534    0.86723    0.77080    1.000
    H215     H        0.01830    0.88900    0.84690    1.000
    C286     C        0.02562    0.79937    0.76560    1.000
    H216     H        0.01830    0.77580    0.83870    1.000
    C287     C        0.03752    0.11599    0.41650    1.000
    C288     C        0.03942    0.11325    0.92190    1.000
    C289     C        0.91669    0.11354    0.11430    1.000
    H217     H        0.91010    0.09040    0.19490    1.000
    H218     H        0.90780    0.15610    0.10790    1.000
    C290     C        0.98761    0.08961    0.17660    1.000
    H219     H        0.99890    0.05490    0.19970    1.000
    C291     C        0.96195    0.07577    0.16430    1.000
    H220     H        0.95590    0.03240    0.17770    1.000
    C292     C        0.94497    0.12572    0.13220    1.000
    C293     C        0.95516    0.18719    0.11160    1.000
    H221     H        0.94430    0.22280    0.08920    1.000
    C294     C        0.98121    0.19691    0.12360    1.000
    H222     H        0.98780    0.23950    0.10670    1.000
    C295     C        0.91075    0.07371    0.99100    1.000
    H223     H        0.91700    0.02840    0.00370    1.000
    H224     H        0.91970    0.09270    0.91200    1.000
    C296     C        0.83957    0.04274    0.02560    1.000
    H225     H        0.82860    0.01820    0.08270    1.000
    C297     C        0.86579    0.03878    0.04740    1.000
    H226     H        0.87230    0.01280    0.11920    1.000
    C298     C        0.88234    0.07258    0.96490    1.000
    C299     C        0.87158    0.10844    0.86400    1.000
    H227     H        0.88210    0.13190    0.80290    1.000
    C300     C        0.84520    0.11082    0.85010    1.000
    H228     H        0.83830    0.13680    0.77960    1.000
    Co13     Co       0.78821    0.58956    0.41536    1.000
    O49      O        0.79061    0.66590    0.55966    1.000
    O50      O        0.78512    0.57349    0.66590    1.000
    O51      O        0.79113    0.66970    0.27899    1.000
    O52      O        0.78875    0.57708    0.17580    1.000
    N37      N        0.78553    0.98447    0.91330    1.000
    N38      N        0.74755    0.60057    0.40770    1.000
    N39      N        0.57914    0.67118    0.17970    1.000
    C301     C        0.78583    0.77428    0.91590    1.000
    C302     C        0.78577    0.73859    0.79510    1.000
    H229     H        0.78500    0.76090    0.71120    1.000
    C303     C        0.78683    0.67070    0.79780    1.000
    C304     C        0.78774    0.63771    0.91870    1.000
    H230     H        0.78820    0.59120    0.91990    1.000
    C305     C        0.78796    0.67282    0.04000    1.000
    C306     C        0.78686    0.74027    0.03760    1.000
    H231     H        0.78680    0.76390    0.12020    1.000
    C307     C        0.79519    0.94967    0.81060    1.000
    H232     H        0.80210    0.97260    0.73570    1.000
    C308     C        0.79556    0.88236    0.80860    1.000
    H233     H        0.80290    0.86010    0.73370    1.000
    C309     C        0.78542    0.84674    0.91450    1.000
    C310     C        0.77534    0.88277    0.02080    1.000
    H234     H        0.76830    0.86100    0.09690    1.000
    C311     C        0.77562    0.95063    0.01560    1.000
    H235     H        0.76830    0.97420    0.08870    1.000
    C312     C        0.78752    0.63401    0.66650    1.000
    C313     C        0.78942    0.63675    0.17190    1.000
    C314     C        0.66669    0.63646    0.36430    1.000
    H236     H        0.66010    0.65960    0.44490    1.000
    H237     H        0.65780    0.59390    0.35790    1.000
    C315     C        0.73761    0.66039    0.42660    1.000
    H238     H        0.74890    0.69510    0.44970    1.000
    C316     C        0.71195    0.67423    0.41430    1.000
    H239     H        0.70590    0.71760    0.42770    1.000
    C317     C        0.69497    0.62428    0.38220    1.000
    C318     C        0.70516    0.56281    0.36160    1.000
    H240     H        0.69430    0.52720    0.33920    1.000
    C319     C        0.73121    0.55309    0.37360    1.000
    H241     H        0.73780    0.51050    0.35670    1.000
    C320     C        0.66075    0.67629    0.24100    1.000
    H242     H        0.66700    0.72160    0.25370    1.000
    H243     H        0.66970    0.65730    0.16200    1.000
    C321     C        0.58957    0.70726    0.27560    1.000
    H244     H        0.57860    0.73180    0.33270    1.000
    C322     C        0.61579    0.71122    0.29740    1.000
    H245     H        0.62230    0.73720    0.36920    1.000
    C323     C        0.63234    0.67742    0.21490    1.000
    C324     C        0.62158    0.64156    0.11400    1.000
    H246     H        0.63210    0.61810    0.05290    1.000
    C325     C        0.59520    0.63918    0.10010    1.000
    H247     H        0.58830    0.61320    0.02960    1.000
    Co14     Co       0.78821    0.08956    0.91536    1.000
    O53      O        0.79061    0.16590    0.05966    1.000
    O54      O        0.78512    0.07349    0.16590    1.000
    O55      O        0.79113    0.16970    0.77899    1.000
    O56      O        0.78875    0.07708    0.67580    1.000
    N40      N        0.78553    0.48447    0.41330    1.000
    N41      N        0.74755    0.10057    0.90770    1.000
    N42      N        0.57914    0.17118    0.67970    1.000
    C326     C        0.78583    0.27428    0.41590    1.000
    C327     C        0.78577    0.23859    0.29510    1.000
    H248     H        0.78500    0.26090    0.21120    1.000
    C328     C        0.78683    0.17070    0.29780    1.000
    C329     C        0.78774    0.13771    0.41870    1.000
    H249     H        0.78820    0.09120    0.41990    1.000
    C330     C        0.78796    0.17282    0.54000    1.000
    C331     C        0.78686    0.24027    0.53760    1.000
    H250     H        0.78680    0.26390    0.62020    1.000
    C332     C        0.79519    0.44967    0.31060    1.000
    H251     H        0.80210    0.47260    0.23570    1.000
    C333     C        0.79556    0.38236    0.30860    1.000
    H252     H        0.80290    0.36010    0.23370    1.000
    C334     C        0.78542    0.34674    0.41450    1.000
    C335     C        0.77534    0.38277    0.52080    1.000
    H253     H        0.76830    0.36100    0.59690    1.000
    C336     C        0.77562    0.45063    0.51560    1.000
    H254     H        0.76830    0.47420    0.58870    1.000
    C337     C        0.78752    0.13401    0.16650    1.000
    C338     C        0.78942    0.13675    0.67190    1.000
    C339     C        0.66669    0.13646    0.86430    1.000
    H255     H        0.66010    0.15960    0.94490    1.000
    H256     H        0.65780    0.09390    0.85790    1.000
    C340     C        0.73761    0.16039    0.92660    1.000
    H257     H        0.74890    0.19510    0.94970    1.000
    C341     C        0.71195    0.17423    0.91430    1.000
    H258     H        0.70590    0.21760    0.92770    1.000
    C342     C        0.69497    0.12428    0.88220    1.000
    C343     C        0.70516    0.06281    0.86160    1.000
    H259     H        0.69430    0.02720    0.83920    1.000
    C344     C        0.73121    0.05309    0.87360    1.000
    H260     H        0.73780    0.01050    0.85670    1.000
    C345     C        0.66075    0.17629    0.74100    1.000
    H261     H        0.66700    0.22160    0.75370    1.000
    H262     H        0.66970    0.15730    0.66200    1.000
    C346     C        0.58957    0.20726    0.77560    1.000
    H263     H        0.57860    0.23180    0.83270    1.000
    C347     C        0.61579    0.21122    0.79740    1.000
    H264     H        0.62230    0.23720    0.86920    1.000
    C348     C        0.63234    0.17742    0.71490    1.000
    C349     C        0.62158    0.14156    0.61400    1.000
    H265     H        0.63210    0.11810    0.55290    1.000
    C350     C        0.59520    0.13918    0.60010    1.000
    H266     H        0.58830    0.11320    0.52960    1.000
    Co15     Co       0.28821    0.58956    0.91536    1.000
    O57      O        0.29061    0.66590    0.05966    1.000
    O58      O        0.28512    0.57349    0.16590    1.000
    O59      O        0.29113    0.66970    0.77899    1.000
    O60      O        0.28875    0.57708    0.67580    1.000
    N43      N        0.28553    0.98447    0.41330    1.000
    N44      N        0.24755    0.60057    0.90770    1.000
    N45      N        0.07914    0.67118    0.67970    1.000
    C351     C        0.28583    0.77428    0.41590    1.000
    C352     C        0.28577    0.73859    0.29510    1.000
    H267     H        0.28500    0.76090    0.21120    1.000
    C353     C        0.28683    0.67070    0.29780    1.000
    C354     C        0.28774    0.63771    0.41870    1.000
    H268     H        0.28820    0.59120    0.41990    1.000
    C355     C        0.28796    0.67282    0.54000    1.000
    C356     C        0.28686    0.74027    0.53760    1.000
    H269     H        0.28680    0.76390    0.62020    1.000
    C357     C        0.29519    0.94967    0.31060    1.000
    H270     H        0.30210    0.97260    0.23570    1.000
    C358     C        0.29556    0.88236    0.30860    1.000
    H271     H        0.30290    0.86010    0.23370    1.000
    C359     C        0.28542    0.84674    0.41450    1.000
    C360     C        0.27534    0.88277    0.52080    1.000
    H272     H        0.26830    0.86100    0.59690    1.000
    C361     C        0.27562    0.95063    0.51560    1.000
    H273     H        0.26830    0.97420    0.58870    1.000
    C362     C        0.28752    0.63401    0.16650    1.000
    C363     C        0.28942    0.63675    0.67190    1.000
    C364     C        0.16669    0.63646    0.86430    1.000
    H274     H        0.16010    0.65960    0.94490    1.000
    H275     H        0.15780    0.59390    0.85790    1.000
    C365     C        0.23761    0.66039    0.92660    1.000
    H276     H        0.24890    0.69510    0.94970    1.000
    C366     C        0.21195    0.67423    0.91430    1.000
    H277     H        0.20590    0.71760    0.92770    1.000
    C367     C        0.19497    0.62428    0.88220    1.000
    C368     C        0.20516    0.56281    0.86160    1.000
    H278     H        0.19430    0.52720    0.83920    1.000
    C369     C        0.23121    0.55309    0.87360    1.000
    H279     H        0.23780    0.51050    0.85670    1.000
    C370     C        0.16075    0.67629    0.74100    1.000
    H280     H        0.16700    0.72160    0.75370    1.000
    H281     H        0.16970    0.65730    0.66200    1.000
    C371     C        0.08957    0.70726    0.77560    1.000
    H282     H        0.07860    0.73180    0.83270    1.000
    C372     C        0.11579    0.71122    0.79740    1.000
    H283     H        0.12230    0.73720    0.86920    1.000
    C373     C        0.13234    0.67742    0.71490    1.000
    C374     C        0.12158    0.64156    0.61400    1.000
    H284     H        0.13210    0.61810    0.55290    1.000
    C375     C        0.09520    0.63918    0.60010    1.000
    H285     H        0.08830    0.61320    0.52960    1.000
    Co16     Co       0.28821    0.08956    0.41536    1.000
    O61      O        0.29061    0.16590    0.55966    1.000
    O62      O        0.28512    0.07349    0.66590    1.000
    O63      O        0.29113    0.16970    0.27899    1.000
    O64      O        0.28875    0.07708    0.17580    1.000
    N46      N        0.28553    0.48447    0.91330    1.000
    N47      N        0.24755    0.10057    0.40770    1.000
    N48      N        0.07914    0.17118    0.17970    1.000
    C376     C        0.28583    0.27428    0.91590    1.000
    C377     C        0.28577    0.23859    0.79510    1.000
    H286     H        0.28500    0.26090    0.71120    1.000
    C378     C        0.28683    0.17070    0.79780    1.000
    C379     C        0.28774    0.13771    0.91870    1.000
    H287     H        0.28820    0.09120    0.91990    1.000
    C380     C        0.28796    0.17282    0.04000    1.000
    C381     C        0.28686    0.24027    0.03760    1.000
    H288     H        0.28680    0.26390    0.12020    1.000
    C382     C        0.29519    0.44967    0.81060    1.000
    H289     H        0.30210    0.47260    0.73570    1.000
    C383     C        0.29556    0.38236    0.80860    1.000
    H290     H        0.30290    0.36010    0.73370    1.000
    C384     C        0.28542    0.34674    0.91450    1.000
    C385     C        0.27534    0.38277    0.02080    1.000
    H291     H        0.26830    0.36100    0.09690    1.000
    C386     C        0.27562    0.45063    0.01560    1.000
    H292     H        0.26830    0.47420    0.08870    1.000
    C387     C        0.28752    0.13401    0.66650    1.000
    C388     C        0.28942    0.13675    0.17190    1.000
    C389     C        0.16669    0.13646    0.36430    1.000
    H293     H        0.16010    0.15960    0.44490    1.000
    H294     H        0.15780    0.09390    0.35790    1.000
    C390     C        0.23761    0.16039    0.42660    1.000
    H295     H        0.24890    0.19510    0.44970    1.000
    C391     C        0.21195    0.17423    0.41430    1.000
    H296     H        0.20590    0.21760    0.42770    1.000
    C392     C        0.19497    0.12428    0.38220    1.000
    C393     C        0.20516    0.06281    0.36160    1.000
    H297     H        0.19430    0.02720    0.33920    1.000
    C394     C        0.23121    0.05309    0.37360    1.000
    H298     H        0.23780    0.01050    0.35670    1.000
    C395     C        0.16075    0.17629    0.24100    1.000
    H299     H        0.16700    0.22160    0.25370    1.000
    H300     H        0.16970    0.15730    0.16200    1.000
    C396     C        0.08957    0.20726    0.27560    1.000
    H301     H        0.07860    0.23180    0.33270    1.000
    C397     C        0.11579    0.21122    0.29740    1.000
    H302     H        0.12230    0.23720    0.36920    1.000
    C398     C        0.13234    0.17742    0.21490    1.000
    C399     C        0.12158    0.14156    0.11400    1.000
    H303     H        0.13210    0.11810    0.05290    1.000
    C400     C        0.09520    0.13918    0.10010    1.000
    H304     H        0.08830    0.11320    0.02960    1.000
