# CIF file generated by openbabel 3.1.0, see https://openbabel.org
data_I
_chemical_name_common 'image0'
_cell_length_a 8.997
_cell_length_b 10.5163
_cell_length_c 10.686
_cell_angle_alpha 98.008
_cell_angle_beta 97.436
_cell_angle_gamma 111.11
_space_group_name_H-M_alt 'P 1'
_space_group_name_Hall 'P 1'
loop_
    _symmetry_equiv_pos_as_xyz
    x,y,z
loop_
    _atom_site_label
    _atom_site_type_symbol
    _atom_site_fract_x
    _atom_site_fract_y
    _atom_site_fract_z
    _atom_site_occupancy
    Mn1      Mn       0.20171    0.74605    0.18588    1.000
    O1       O        0.94957    0.63610    0.06921    1.000
    O2       O        0.81866    0.46677    0.89472    1.000
    N1       N        0.46130    0.82120    0.27313    1.000
    N2       N        0.81120    0.17345    0.20293    1.000
    N3       N        0.71750    0.97400    0.31517    1.000
    N4       N        0.91080    0.20550    0.44180    1.000
    N5       N        0.00710    0.06800    0.27652    1.000
    C1       C        0.56910    0.92640    0.23830    1.000
    H1       H        0.54550    0.96390    0.16810    1.000
    C2       C        0.93250    0.52970    0.98950    1.000
    C3       C        0.70150    0.89020    0.40590    1.000
    H2       H        0.78290    0.89630    0.47250    1.000
    C4       C        0.81670    0.14360    0.07670    1.000
    H3       H        0.87020    0.08920    0.04440    1.000
    C5       C        0.01540    0.94070    0.26200    1.000
    H4       H        0.93470    0.86180    0.27570    1.000
    C6       C        0.54490    0.79740    0.37940    1.000
    H5       H        0.50090    0.72860    0.42550    1.000
    C7       C        0.23550    0.07650    0.21670    1.000
    H6       H        0.33660    0.10940    0.19340    1.000
    C8       C        0.71980    0.25450    0.21040    1.000
    H7       H        0.69340    0.29120    0.28460    1.000
    C9       C        0.67580    0.27030    0.08900    1.000
    H8       H        0.61370    0.32070    0.06630    1.000
    C10      C        0.14840    0.15490    0.24650    1.000
    H9       H        0.17850    0.24930    0.24660    1.000
    C11      C        0.81150    0.20360    0.52640    1.000
    H10      H        0.70450    0.14020    0.51160    1.000
    C12      C        0.05690    0.31430    0.49940    1.000
    H11      H        0.15090    0.34300    0.46520    1.000
    C13      C        0.03680    0.37120    0.61500    1.000
    H12      H        0.11600    0.44620    0.67360    1.000
    B1       B        0.86400    0.10540    0.30990    1.000
    N6       N        0.15080    0.94100    0.22621    1.000
    N7       N        0.88090    0.30050    0.63237    1.000
    N8       N        0.73750    0.20030    0.00425    1.000
    Mn2      Mn       0.79829    0.25395    0.81412    1.000
    O3       O        0.05043    0.36390    0.93079    1.000
    O4       O        0.18134    0.53323    0.10528    1.000
    N9       N        0.53870    0.17880    0.72687    1.000
    N10      N        0.18880    0.82655    0.79707    1.000
    N11      N        0.28250    0.02600    0.68483    1.000
    N12      N        0.08920    0.79450    0.55820    1.000
    N13      N        0.99290    0.93200    0.72348    1.000
    C14      C        0.43090    0.07360    0.76170    1.000
    H13      H        0.45450    0.03610    0.83190    1.000
    C15      C        0.06750    0.47030    0.01050    1.000
    C16      C        0.29850    0.10980    0.59410    1.000
    H14      H        0.21710    0.10370    0.52750    1.000
    C17      C        0.18330    0.85640    0.92330    1.000
    H15      H        0.12980    0.91080    0.95560    1.000
    C18      C        0.98460    0.05930    0.73800    1.000
    H16      H        0.06530    0.13820    0.72430    1.000
    C19      C        0.45510    0.20260    0.62060    1.000
    H17      H        0.49910    0.27140    0.57450    1.000
    C20      C        0.76450    0.92350    0.78330    1.000
    H18      H        0.66340    0.89060    0.80660    1.000
    C21      C        0.28020    0.74550    0.78960    1.000
    H19      H        0.30660    0.70880    0.71540    1.000
    C22      C        0.32420    0.72970    0.91100    1.000
    H20      H        0.38630    0.67930    0.93370    1.000
    C23      C        0.85160    0.84510    0.75350    1.000
    H21      H        0.82150    0.75070    0.75340    1.000
    C24      C        0.18850    0.79640    0.47360    1.000
    H22      H        0.29550    0.85980    0.48840    1.000
    C25      C        0.94310    0.68570    0.50060    1.000
    H23      H        0.84910    0.65700    0.53480    1.000
    C26      C        0.96320    0.62880    0.38500    1.000
    H24      H        0.88400    0.55380    0.32640    1.000
    B2       B        0.13600    0.89460    0.69010    1.000
    N14      N        0.84920    0.05900    0.77379    1.000
    N15      N        0.11910    0.69950    0.36763    1.000
    N16      N        0.26250    0.79970    0.99575    1.000
