# CIF file generated by openbabel 3.1.0, see https://openbabel.org
data_I
_chemical_name_common 'image0'
_cell_length_a 8.3585
_cell_length_b 12.3865
_cell_length_c 12.6474
_cell_angle_alpha 109.88
_cell_angle_beta 97.148
_cell_angle_gamma 105.321
_space_group_name_H-M_alt 'P 1'
_space_group_name_Hall 'P 1'
loop_
    _symmetry_equiv_pos_as_xyz
    x,y,z
loop_
    _atom_site_label
    _atom_site_type_symbol
    _atom_site_fract_x
    _atom_site_fract_y
    _atom_site_fract_z
    _atom_site_occupancy
    Sr1      Sr       0.52281    0.38668    0.83610    1.000
    Sr2      Sr       0.73255    0.97086    0.44299    1.000
    S1       S        0.86161    0.59771    0.49878    1.000
    C1       C        0.81220    0.50810    0.35230    1.000
    C2       C        0.69410    0.39440    0.32910    1.000
    C3       C        0.64390    0.38180    0.43020    1.000
    C4       C        0.72620    0.48420    0.52790    1.000
    C5       C        0.62190    0.29880    0.21690    1.000
    N1       N        0.56180    0.21930    0.12880    1.000
    C6       C        0.51380    0.26950    0.42640    1.000
    H1       H        0.45690    0.29230    0.49090    1.000
    H2       H        0.42550    0.23370    0.35300    1.000
    C7       C        0.59370    0.17420    0.43580    1.000
    O1       O        0.69740    0.14922    0.37546    1.000
    O2       O        0.54970    0.12130    0.50208    1.000
    C8       C        0.71650    0.51290    0.65020    1.000
    O3       O        0.64080    0.42856    0.67841    1.000
    O4       O        0.79050    0.62341    0.71948    1.000
    N2       N        0.88730    0.55429    0.28088    1.000
    C9       C        0.99030    0.68240    0.32950    1.000
    H3       H        0.08500    0.69640    0.39330    1.000
    H4       H        0.04150    0.70220    0.26910    1.000
    C10      C        0.89080    0.76970    0.37615    1.000
    O5       O        0.73560    0.74141    0.32936    1.000
    O6       O        0.97410    0.86959    0.45813    1.000
    C11      C        0.90630    0.47590    0.17032    1.000
    H5       H        0.02070    0.51300    0.16020    1.000
    H6       H        0.90230    0.39670    0.17410    1.000
    C12      C        0.77390    0.45250    0.06430    1.000
    O7       O        0.79310    0.39005    0.96751    1.000
    O8       O        0.65330    0.49464    0.07465    1.000
    O9       O        0.54860    0.16837    0.73157    1.000
    H7       H        0.60800    0.16200    0.68600    1.000
    H8       H        0.57200    0.12900    0.76800    1.000
    Sr3      Sr       0.47719    0.61332    0.16390    1.000
    Sr4      Sr       0.26745    0.02914    0.55701    1.000
    S2       S        0.13839    0.40229    0.50122    1.000
    C13      C        0.18780    0.49190    0.64770    1.000
    C14      C        0.30590    0.60560    0.67090    1.000
    C15      C        0.35610    0.61820    0.56980    1.000
    C16      C        0.27380    0.51580    0.47210    1.000
    C17      C        0.37810    0.70120    0.78310    1.000
    N3       N        0.43820    0.78070    0.87120    1.000
    C18      C        0.48620    0.73050    0.57360    1.000
    H9       H        0.54310    0.70770    0.50910    1.000
    H10      H        0.57450    0.76630    0.64700    1.000
    C19      C        0.40630    0.82580    0.56420    1.000
    O10      O        0.30260    0.85078    0.62454    1.000
    O11      O        0.45030    0.87870    0.49792    1.000
    C20      C        0.28350    0.48710    0.34980    1.000
    O12      O        0.35920    0.57144    0.32159    1.000
    O13      O        0.20950    0.37659    0.28052    1.000
    N4       N        0.11270    0.44571    0.71912    1.000
    C21      C        0.00970    0.31760    0.67050    1.000
    H11      H        0.91500    0.30360    0.60670    1.000
    H12      H        0.95850    0.29780    0.73090    1.000
    C22      C        0.10920    0.23030    0.62385    1.000
    O14      O        0.26440    0.25859    0.67064    1.000
    O15      O        0.02590    0.13041    0.54187    1.000
    C23      C        0.09370    0.52410    0.82968    1.000
    H13      H        0.97930    0.48700    0.83980    1.000
    H14      H        0.09770    0.60330    0.82590    1.000
    C24      C        0.22610    0.54750    0.93570    1.000
    O16      O        0.20690    0.60995    0.03249    1.000
    O17      O        0.34670    0.50536    0.92535    1.000
    O18      O        0.45140    0.83163    0.26843    1.000
    H15      H        0.39200    0.83800    0.31400    1.000
    H16      H        0.42800    0.87100    0.23200    1.000
