# CIF file generated by openbabel 3.1.0, see https://openbabel.org
data_I
_chemical_name_common 'image0'
_cell_length_a 17.714
_cell_length_b 12.567
_cell_length_c 25.643
_cell_angle_alpha 90
_cell_angle_beta 93.44
_cell_angle_gamma 90
_space_group_name_H-M_alt 'P 1'
_space_group_name_Hall 'P 1'
loop_
    _symmetry_equiv_pos_as_xyz
    x,y,z
loop_
    _atom_site_label
    _atom_site_type_symbol
    _atom_site_fract_x
    _atom_site_fract_y
    _atom_site_fract_z
    _atom_site_occupancy
    Cu1      Cu       0.82189    0.22490    0.50327    1.000
    O1       O        0.83540    0.34510    0.55140    1.000
    O2       O        0.70590    0.39040    0.54620    1.000
    O3       O        0.82860    0.67730    0.94280    1.000
    O4       O        0.70040    0.63280    0.93830    1.000
    C1       C        0.93420    0.53770    0.71800    1.000
    C2       C        0.93280    0.53880    0.77440    1.000
    C3       C        0.00120    0.53800    0.69490    1.000
    H1       H        0.00230    0.53760    0.65860    1.000
    C4       C        0.86340    0.55040    0.68210    1.000
    C5       C        0.85200    0.47420    0.63890    1.000
    H2       H        0.88820    0.42260    0.63320    1.000
    C6       C        0.78690    0.48060    0.60730    1.000
    C7       C        0.73630    0.56760    0.61440    1.000
    H3       H        0.69450    0.57450    0.59100    1.000
    C8       C        0.74570    0.63930    0.65260    1.000
    H4       H        0.71100    0.69100    0.64500    1.000
    C9       C        0.80840    0.63070    0.68880    1.000
    H5       H        0.81370    0.67730    0.71690    1.000
    C10      C        0.85450    0.52820    0.80110    1.000
    C11      C        0.84730    0.57520    0.84450    1.000
    H6       H        0.88720    0.61630    0.85870    1.000
    C12      C        0.78000    0.56700    0.87230    1.000
    C13      C        0.72300    0.49840    0.85230    1.000
    H7       H        0.67770    0.49230    0.86850    1.000
    C14      C        0.73520    0.44220    0.80960    1.000
    H8       H        0.69810    0.39470    0.79720    1.000
    C15      C        0.80170    0.45140    0.78230    1.000
    H9       H        0.81020    0.40910    0.75350    1.000
    C16      C        0.77290    0.39760    0.56480    1.000
    C17      C        0.76850    0.63130    0.92450    1.000
    Cu2      Cu       0.32189    0.72490    0.50327    1.000
    O5       O        0.33540    0.84510    0.55140    1.000
    O6       O        0.20590    0.89040    0.54620    1.000
    O7       O        0.32860    0.17730    0.94280    1.000
    O8       O        0.20040    0.13280    0.93830    1.000
    C18      C        0.43420    0.03770    0.71800    1.000
    C19      C        0.43280    0.03880    0.77440    1.000
    C20      C        0.50120    0.03800    0.69490    1.000
    H10      H        0.50230    0.03760    0.65860    1.000
    C21      C        0.36340    0.05040    0.68210    1.000
    C22      C        0.35200    0.97420    0.63890    1.000
    H11      H        0.38820    0.92260    0.63320    1.000
    C23      C        0.28690    0.98060    0.60730    1.000
    C24      C        0.23630    0.06760    0.61440    1.000
    H12      H        0.19450    0.07450    0.59100    1.000
    C25      C        0.24570    0.13930    0.65260    1.000
    H13      H        0.21100    0.19100    0.64500    1.000
    C26      C        0.30840    0.13070    0.68880    1.000
    H14      H        0.31370    0.17730    0.71690    1.000
    C27      C        0.35450    0.02820    0.80110    1.000
    C28      C        0.34730    0.07520    0.84450    1.000
    H15      H        0.38720    0.11630    0.85870    1.000
    C29      C        0.28000    0.06700    0.87230    1.000
    C30      C        0.22300    0.99840    0.85230    1.000
    H16      H        0.17770    0.99230    0.86850    1.000
    C31      C        0.23520    0.94220    0.80960    1.000
    H17      H        0.19810    0.89470    0.79720    1.000
    C32      C        0.30170    0.95140    0.78230    1.000
    H18      H        0.31020    0.90910    0.75350    1.000
    C33      C        0.27290    0.89760    0.56480    1.000
    C34      C        0.26850    0.13130    0.92450    1.000
    Cu3      Cu       0.17811    0.22490    0.99673    1.000
    O9       O        0.16460    0.34510    0.94860    1.000
    O10      O        0.29410    0.39040    0.95380    1.000
    O11      O        0.17140    0.67730    0.55720    1.000
    O12      O        0.29960    0.63280    0.56170    1.000
    C35      C        0.06580    0.53770    0.78200    1.000
    C36      C        0.06720    0.53880    0.72560    1.000
    C37      C        0.99880    0.53800    0.80510    1.000
    H19      H        0.99770    0.53760    0.84140    1.000
    C38      C        0.13660    0.55040    0.81790    1.000
    C39      C        0.14800    0.47420    0.86110    1.000
    H20      H        0.11180    0.42260    0.86680    1.000
    C40      C        0.21310    0.48060    0.89270    1.000
    C41      C        0.26370    0.56760    0.88560    1.000
    H21      H        0.30550    0.57450    0.90900    1.000
    C42      C        0.25430    0.63930    0.84740    1.000
    H22      H        0.28900    0.69100    0.85500    1.000
    C43      C        0.19160    0.63070    0.81120    1.000
    H23      H        0.18630    0.67730    0.78310    1.000
    C44      C        0.14550    0.52820    0.69890    1.000
    C45      C        0.15270    0.57520    0.65550    1.000
    H24      H        0.11280    0.61630    0.64130    1.000
    C46      C        0.22000    0.56700    0.62770    1.000
    C47      C        0.27700    0.49840    0.64770    1.000
    H25      H        0.32230    0.49230    0.63150    1.000
    C48      C        0.26480    0.44220    0.69040    1.000
    H26      H        0.30190    0.39470    0.70280    1.000
    C49      C        0.19830    0.45140    0.71770    1.000
    H27      H        0.18980    0.40910    0.74650    1.000
    C50      C        0.22710    0.39760    0.93520    1.000
    C51      C        0.23150    0.63130    0.57550    1.000
    Cu4      Cu       0.67811    0.72490    0.99673    1.000
    O13      O        0.66460    0.84510    0.94860    1.000
    O14      O        0.79410    0.89040    0.95380    1.000
    O15      O        0.67140    0.17730    0.55720    1.000
    O16      O        0.79960    0.13280    0.56170    1.000
    C52      C        0.56580    0.03770    0.78200    1.000
    C53      C        0.56720    0.03880    0.72560    1.000
    C54      C        0.49880    0.03800    0.80510    1.000
    H28      H        0.49770    0.03760    0.84140    1.000
    C55      C        0.63660    0.05040    0.81790    1.000
    C56      C        0.64800    0.97420    0.86110    1.000
    H29      H        0.61180    0.92260    0.86680    1.000
    C57      C        0.71310    0.98060    0.89270    1.000
    C58      C        0.76370    0.06760    0.88560    1.000
    H30      H        0.80550    0.07450    0.90900    1.000
    C59      C        0.75430    0.13930    0.84740    1.000
    H31      H        0.78900    0.19100    0.85500    1.000
    C60      C        0.69160    0.13070    0.81120    1.000
    H32      H        0.68630    0.17730    0.78310    1.000
    C61      C        0.64550    0.02820    0.69890    1.000
    C62      C        0.65270    0.07520    0.65550    1.000
    H33      H        0.61280    0.11630    0.64130    1.000
    C63      C        0.72000    0.06700    0.62770    1.000
    C64      C        0.77700    0.99840    0.64770    1.000
    H34      H        0.82230    0.99230    0.63150    1.000
    C65      C        0.76480    0.94220    0.69040    1.000
    H35      H        0.80190    0.89470    0.70280    1.000
    C66      C        0.69830    0.95140    0.71770    1.000
    H36      H        0.68980    0.90910    0.74650    1.000
    C67      C        0.72710    0.89760    0.93520    1.000
    C68      C        0.73150    0.13130    0.57550    1.000
    Cu5      Cu       0.17811    0.77510    0.49673    1.000
    O17      O        0.16460    0.65490    0.44860    1.000
    O18      O        0.29410    0.60960    0.45380    1.000
    O19      O        0.17140    0.32270    0.05720    1.000
    O20      O        0.29960    0.36720    0.06170    1.000
    C69      C        0.06580    0.46230    0.28200    1.000
    C70      C        0.06720    0.46120    0.22560    1.000
    C71      C        0.99880    0.46200    0.30510    1.000
    H37      H        0.99770    0.46240    0.34140    1.000
    C72      C        0.13660    0.44960    0.31790    1.000
    C73      C        0.14800    0.52580    0.36110    1.000
    H38      H        0.11180    0.57740    0.36680    1.000
    C74      C        0.21310    0.51940    0.39270    1.000
    C75      C        0.26370    0.43240    0.38560    1.000
    H39      H        0.30550    0.42550    0.40900    1.000
    C76      C        0.25430    0.36070    0.34740    1.000
    H40      H        0.28900    0.30900    0.35500    1.000
    C77      C        0.19160    0.36930    0.31120    1.000
    H41      H        0.18630    0.32270    0.28310    1.000
    C78      C        0.14550    0.47180    0.19890    1.000
    C79      C        0.15270    0.42480    0.15550    1.000
    H42      H        0.11280    0.38370    0.14130    1.000
    C80      C        0.22000    0.43300    0.12770    1.000
    C81      C        0.27700    0.50160    0.14770    1.000
    H43      H        0.32230    0.50770    0.13150    1.000
    C82      C        0.26480    0.55780    0.19040    1.000
    H44      H        0.30190    0.60530    0.20280    1.000
    C83      C        0.19830    0.54860    0.21770    1.000
    H45      H        0.18980    0.59090    0.24650    1.000
    C84      C        0.22710    0.60240    0.43520    1.000
    C85      C        0.23150    0.36870    0.07550    1.000
    Cu6      Cu       0.67811    0.27510    0.49673    1.000
    O21      O        0.66460    0.15490    0.44860    1.000
    O22      O        0.79410    0.10960    0.45380    1.000
    O23      O        0.67140    0.82270    0.05720    1.000
    O24      O        0.79960    0.86720    0.06170    1.000
    C86      C        0.56580    0.96230    0.28200    1.000
    C87      C        0.56720    0.96120    0.22560    1.000
    C88      C        0.49880    0.96200    0.30510    1.000
    H46      H        0.49770    0.96240    0.34140    1.000
    C89      C        0.63660    0.94960    0.31790    1.000
    C90      C        0.64800    0.02580    0.36110    1.000
    H47      H        0.61180    0.07740    0.36680    1.000
    C91      C        0.71310    0.01940    0.39270    1.000
    C92      C        0.76370    0.93240    0.38560    1.000
    H48      H        0.80550    0.92550    0.40900    1.000
    C93      C        0.75430    0.86070    0.34740    1.000
    H49      H        0.78900    0.80900    0.35500    1.000
    C94      C        0.69160    0.86930    0.31120    1.000
    H50      H        0.68630    0.82270    0.28310    1.000
    C95      C        0.64550    0.97180    0.19890    1.000
    C96      C        0.65270    0.92480    0.15550    1.000
    H51      H        0.61280    0.88370    0.14130    1.000
    C97      C        0.72000    0.93300    0.12770    1.000
    C98      C        0.77700    0.00160    0.14770    1.000
    H52      H        0.82230    0.00770    0.13150    1.000
    C99      C        0.76480    0.05780    0.19040    1.000
    H53      H        0.80190    0.10530    0.20280    1.000
    C100     C        0.69830    0.04860    0.21770    1.000
    H54      H        0.68980    0.09090    0.24650    1.000
    C101     C        0.72710    0.10240    0.43520    1.000
    C102     C        0.73150    0.86870    0.07550    1.000
    Cu7      Cu       0.82189    0.77510    0.00327    1.000
    O25      O        0.83540    0.65490    0.05140    1.000
    O26      O        0.70590    0.60960    0.04620    1.000
    O27      O        0.82860    0.32270    0.44280    1.000
    O28      O        0.70040    0.36720    0.43830    1.000
    C103     C        0.93420    0.46230    0.21800    1.000
    C104     C        0.93280    0.46120    0.27440    1.000
    C105     C        0.00120    0.46200    0.19490    1.000
    H55      H        0.00230    0.46240    0.15860    1.000
    C106     C        0.86340    0.44960    0.18210    1.000
    C107     C        0.85200    0.52580    0.13890    1.000
    H56      H        0.88820    0.57740    0.13320    1.000
    C108     C        0.78690    0.51940    0.10730    1.000
    C109     C        0.73630    0.43240    0.11440    1.000
    H57      H        0.69450    0.42550    0.09100    1.000
    C110     C        0.74570    0.36070    0.15260    1.000
    H58      H        0.71100    0.30900    0.14500    1.000
    C111     C        0.80840    0.36930    0.18880    1.000
    H59      H        0.81370    0.32270    0.21690    1.000
    C112     C        0.85450    0.47180    0.30110    1.000
    C113     C        0.84730    0.42480    0.34450    1.000
    H60      H        0.88720    0.38370    0.35870    1.000
    C114     C        0.78000    0.43300    0.37230    1.000
    C115     C        0.72300    0.50160    0.35230    1.000
    H61      H        0.67770    0.50770    0.36850    1.000
    C116     C        0.73520    0.55780    0.30960    1.000
    H62      H        0.69810    0.60530    0.29720    1.000
    C117     C        0.80170    0.54860    0.28230    1.000
    H63      H        0.81020    0.59090    0.25350    1.000
    C118     C        0.77290    0.60240    0.06480    1.000
    C119     C        0.76850    0.36870    0.42450    1.000
    Cu8      Cu       0.32189    0.27510    0.00327    1.000
    O29      O        0.33540    0.15490    0.05140    1.000
    O30      O        0.20590    0.10960    0.04620    1.000
    O31      O        0.32860    0.82270    0.44280    1.000
    O32      O        0.20040    0.86720    0.43830    1.000
    C120     C        0.43420    0.96230    0.21800    1.000
    C121     C        0.43280    0.96120    0.27440    1.000
    C122     C        0.50120    0.96200    0.19490    1.000
    H64      H        0.50230    0.96240    0.15860    1.000
    C123     C        0.36340    0.94960    0.18210    1.000
    C124     C        0.35200    0.02580    0.13890    1.000
    H65      H        0.38820    0.07740    0.13320    1.000
    C125     C        0.28690    0.01940    0.10730    1.000
    C126     C        0.23630    0.93240    0.11440    1.000
    H66      H        0.19450    0.92550    0.09100    1.000
    C127     C        0.24570    0.86070    0.15260    1.000
    H67      H        0.21100    0.80900    0.14500    1.000
    C128     C        0.30840    0.86930    0.18880    1.000
    H68      H        0.31370    0.82270    0.21690    1.000
    C129     C        0.35450    0.97180    0.30110    1.000
    C130     C        0.34730    0.92480    0.34450    1.000
    H69      H        0.38720    0.88370    0.35870    1.000
    C131     C        0.28000    0.93300    0.37230    1.000
    C132     C        0.22300    0.00160    0.35230    1.000
    H70      H        0.17770    0.00770    0.36850    1.000
    C133     C        0.23520    0.05780    0.30960    1.000
    H71      H        0.19810    0.10530    0.29720    1.000
    C134     C        0.30170    0.04860    0.28230    1.000
    H72      H        0.31020    0.09090    0.25350    1.000
    C135     C        0.27290    0.10240    0.06480    1.000
    C136     C        0.26850    0.86870    0.42450    1.000
