# CIF file generated by openbabel 3.1.0, see https://openbabel.org
data_I
_chemical_name_common 'image0'
_cell_length_a 8.9978
_cell_length_b 9.4638
_cell_length_c 10.433
_cell_angle_alpha 90
_cell_angle_beta 90
_cell_angle_gamma 90
_space_group_name_H-M_alt 'P 1'
_space_group_name_Hall 'P 1'
loop_
    _symmetry_equiv_pos_as_xyz
    x,y,z
loop_
    _atom_site_label
    _atom_site_type_symbol
    _atom_site_fract_x
    _atom_site_fract_y
    _atom_site_fract_z
    _atom_site_occupancy
    Co1      Co       0.70432    0.05272    0.73099    1.000
    O1       O        0.53970    0.91550    0.67950    1.000
    O2       O        0.41510    0.71650    0.68480    1.000
    O3       O        0.15250    0.34720    0.44310    1.000
    O4       O        0.28050    0.47950    0.58110    1.000
    N1       N        0.12810    0.38560    0.77700    1.000
    N2       N        0.89870    0.18830    0.74770    1.000
    C1       C        0.50570    0.80140    0.72590    1.000
    H1       H        0.55430    0.77630    0.80120    1.000
    C2       C        0.18340    0.39050    0.55270    1.000
    C3       C        0.09620    0.33320    0.66380    1.000
    C4       C        0.97770    0.23540    0.64690    1.000
    H2       H        0.95450    0.20350    0.56500    1.000
    C5       C        0.93710    0.24150    0.86290    1.000
    H3       H        0.88340    0.21310    0.93460    1.000
    C6       C        0.05210    0.33590    0.87940    1.000
    H4       H        0.07760    0.36570    0.96150    1.000
    Co2      Co       0.79568    0.94728    0.23099    1.000
    O5       O        0.96030    0.08450    0.17950    1.000
    O6       O        0.08490    0.28350    0.18480    1.000
    O7       O        0.34750    0.65280    0.94310    1.000
    O8       O        0.21950    0.52050    0.08110    1.000
    N3       N        0.37190    0.61440    0.27700    1.000
    N4       N        0.60130    0.81170    0.24770    1.000
    C7       C        0.99430    0.19860    0.22590    1.000
    H5       H        0.94570    0.22370    0.30120    1.000
    C8       C        0.31660    0.60950    0.05270    1.000
    C9       C        0.40380    0.66680    0.16380    1.000
    C10      C        0.52230    0.76460    0.14690    1.000
    H6       H        0.54550    0.79650    0.06500    1.000
    C11      C        0.56290    0.75850    0.36290    1.000
    H7       H        0.61660    0.78690    0.43460    1.000
    C12      C        0.44790    0.66410    0.37940    1.000
    H8       H        0.42240    0.63430    0.46150    1.000
    Co3      Co       0.29568    0.55272    0.76901    1.000
    O9       O        0.46030    0.41550    0.82050    1.000
    O10      O        0.58490    0.21650    0.81520    1.000
    O11      O        0.84750    0.84720    0.05690    1.000
    O12      O        0.71950    0.97950    0.91890    1.000
    N5       N        0.87190    0.88560    0.72300    1.000
    N6       N        0.10130    0.68830    0.75230    1.000
    C13      C        0.49430    0.30140    0.77410    1.000
    H9       H        0.44570    0.27630    0.69880    1.000
    C14      C        0.81660    0.89050    0.94730    1.000
    C15      C        0.90380    0.83320    0.83620    1.000
    C16      C        0.02230    0.73540    0.85310    1.000
    H10      H        0.04550    0.70350    0.93500    1.000
    C17      C        0.06290    0.74150    0.63710    1.000
    H11      H        0.11660    0.71310    0.56540    1.000
    C18      C        0.94790    0.83590    0.62060    1.000
    H12      H        0.92240    0.86570    0.53850    1.000
    Co4      Co       0.20432    0.44728    0.26901    1.000
    O13      O        0.03970    0.58450    0.32050    1.000
    O14      O        0.91510    0.78350    0.31520    1.000
    O15      O        0.65250    0.15280    0.55690    1.000
    O16      O        0.78050    0.02050    0.41890    1.000
    N7       N        0.62810    0.11440    0.22300    1.000
    N8       N        0.39870    0.31170    0.25230    1.000
    C19      C        0.00570    0.69860    0.27410    1.000
    H13      H        0.05430    0.72370    0.19880    1.000
    C20      C        0.68340    0.10950    0.44730    1.000
    C21      C        0.59620    0.16680    0.33620    1.000
    C22      C        0.47770    0.26460    0.35310    1.000
    H14      H        0.45450    0.29650    0.43500    1.000
    C23      C        0.43710    0.25850    0.13710    1.000
    H15      H        0.38340    0.28690    0.06540    1.000
    C24      C        0.55210    0.16410    0.12060    1.000
    H16      H        0.57760    0.13430    0.03850    1.000
