# CIF file generated by openbabel 3.1.0, see https://openbabel.org
data_I
_chemical_name_common 'image0'
_cell_length_a 9.3028
_cell_length_b 14.9043
_cell_length_c 15.2092
_cell_angle_alpha 70.594
_cell_angle_beta 83.472
_cell_angle_gamma 84.978
_space_group_name_H-M_alt 'P 1'
_space_group_name_Hall 'P 1'
loop_
    _symmetry_equiv_pos_as_xyz
    x,y,z
loop_
    _atom_site_label
    _atom_site_type_symbol
    _atom_site_fract_x
    _atom_site_fract_y
    _atom_site_fract_z
    _atom_site_occupancy
    Cd1      Cd       0.65692    0.72132    0.03472    1.000
    O1       O        0.46920    0.81985    0.96240    1.000
    O2       O        0.67420    0.88614    0.95700    1.000
    O3       O        0.67420    0.61568    0.94734    1.000
    O4       O        0.86780    0.68860    0.94640    1.000
    O5       O        0.52350    0.49959    0.14368    1.000
    O6       O        0.50940    0.64498    0.15702    1.000
    N1       N        0.16250    0.27560    0.87040    1.000
    H1       H        0.19720    0.22050    0.90240    1.000
    H2       H        0.10490    0.30850    0.89780    1.000
    C1       C        0.35590    0.16430    0.78110    1.000
    C2       C        0.47870    0.98770    0.88330    1.000
    C3       C        0.44510    0.51440    0.29110    1.000
    C4       C        0.80910    0.62780    0.92420    1.000
    C5       C        0.54670    0.89320    0.93670    1.000
    C6       C        0.05950    0.46440    0.77080    1.000
    C7       C        0.19270    0.44200    0.62630    1.000
    H3       H        0.15590    0.50200    0.59220    1.000
    C8       C        0.34260    0.53280    0.43740    1.000
    H4       H        0.30890    0.57240    0.47220    1.000
    C9       C        0.28880    0.39150    0.58010    1.000
    C10      C        0.56120    0.06640    0.85190    1.000
    H5       H        0.65770    0.06060    0.86470    1.000
    C11      C        0.39380    0.57230    0.34440    1.000
    H6       H        0.39400    0.63820    0.31730    1.000
    C12      C        0.89480    0.57240    0.86960    1.000
    C13      C        0.29400    0.25930    0.72730    1.000
    C14      C        0.34100    0.43380    0.47970    1.000
    C15      C        0.50040    0.15480    0.80110    1.000
    H7       H        0.55640    0.20780    0.78040    1.000
    C16      C        0.49630    0.55610    0.18940    1.000
    C17      C        0.33840    0.30020    0.63210    1.000
    H8       H        0.40290    0.26560    0.60270    1.000
    C18      C        0.20070    0.31260    0.77160    1.000
    C19      C        0.44700    0.41660    0.33270    1.000
    H9       H        0.48280    0.37720    0.29800    1.000
    C20      C        0.33360    0.99700    0.86440    1.000
    H10      H        0.27710    0.94420    0.88580    1.000
    C21      C        0.39570    0.37680    0.42570    1.000
    H11      H        0.39790    0.31090    0.45270    1.000
    C22      C        0.15040    0.40560    0.72130    1.000
    C23      C        0.04230    0.55810    0.87600    1.000
    H12      H        0.08750    0.58510    0.91190    1.000
    C24      C        0.27420    0.08450    0.81410    1.000
    H13      H        0.17740    0.09010    0.80210    1.000
    C25      C        0.82990    0.53840    0.81160    1.000
    H14      H        0.73090    0.55010    0.80600    1.000
    C26      C        0.91200    0.48610    0.76110    1.000
    H15      H        0.86760    0.46530    0.72010    1.000
    C27      C        0.12270    0.50280    0.82810    1.000
    H16      H        0.22150    0.49130    0.83440    1.000
    Cd2      Cd       0.34308    0.27868    0.96528    1.000
    O7       O        0.53080    0.18015    0.03760    1.000
    O8       O        0.32580    0.11386    0.04300    1.000
    O9       O        0.32580    0.38432    0.05266    1.000
    O10      O        0.13220    0.31140    0.05360    1.000
    O11      O        0.47650    0.50041    0.85632    1.000
    O12      O        0.49060    0.35502    0.84298    1.000
    N2       N        0.83750    0.72440    0.12960    1.000
    H17      H        0.80280    0.77950    0.09760    1.000
    H18      H        0.89510    0.69150    0.10220    1.000
    C28      C        0.64410    0.83570    0.21890    1.000
    C29      C        0.52130    0.01230    0.11670    1.000
    C30      C        0.55490    0.48560    0.70890    1.000
    C31      C        0.19090    0.37220    0.07580    1.000
    C32      C        0.45330    0.10680    0.06330    1.000
    C33      C        0.94050    0.53560    0.22920    1.000
    C34      C        0.80730    0.55800    0.37370    1.000
    H19      H        0.84410    0.49800    0.40780    1.000
    C35      C        0.65740    0.46720    0.56260    1.000
    H20      H        0.69110    0.42760    0.52780    1.000
    C36      C        0.71120    0.60850    0.41990    1.000
    C37      C        0.43880    0.93360    0.14810    1.000
    H21      H        0.34230    0.93940    0.13530    1.000
    C38      C        0.60620    0.42770    0.65560    1.000
    H22      H        0.60600    0.36180    0.68270    1.000
    C39      C        0.10520    0.42760    0.13040    1.000
    C40      C        0.70600    0.74070    0.27270    1.000
    C41      C        0.65900    0.56620    0.52030    1.000
    C42      C        0.49960    0.84520    0.19890    1.000
    H23      H        0.44360    0.79220    0.21960    1.000
    C43      C        0.50370    0.44390    0.81060    1.000
    C44      C        0.66160    0.69980    0.36790    1.000
    H24      H        0.59710    0.73440    0.39730    1.000
    C45      C        0.79930    0.68740    0.22840    1.000
    C46      C        0.55300    0.58340    0.66730    1.000
    H25      H        0.51720    0.62280    0.70200    1.000
    C47      C        0.66640    0.00300    0.13560    1.000
    H26      H        0.72290    0.05580    0.11420    1.000
    C48      C        0.60430    0.62320    0.57430    1.000
    H27      H        0.60210    0.68910    0.54730    1.000
    C49      C        0.84960    0.59440    0.27870    1.000
    C50      C        0.95770    0.44190    0.12400    1.000
    H28      H        0.91250    0.41490    0.08810    1.000
    C51      C        0.72580    0.91550    0.18590    1.000
    H29      H        0.82260    0.90990    0.19790    1.000
    C52      C        0.17010    0.46160    0.18840    1.000
    H30      H        0.26910    0.44990    0.19400    1.000
    C53      C        0.08800    0.51390    0.23890    1.000
    H31      H        0.13240    0.53470    0.27990    1.000
    C54      C        0.87730    0.49720    0.17190    1.000
    H32      H        0.77850    0.50870    0.16560    1.000
    Cd3      Cd       0.50000    0.50000    0.00000    1.000
