# CIF file generated by openbabel 3.1.0, see https://openbabel.org
data_I
_chemical_name_common 'NACYUM_clean'
_cell_length_a 8.7734
_cell_length_b 15.507
_cell_length_c 17.264
_cell_angle_alpha 90
_cell_angle_beta 90
_cell_angle_gamma 93.94
_space_group_name_H-M_alt 'P 1'
_space_group_name_Hall 'P 1'
loop_
    _symmetry_equiv_pos_as_xyz
    x,y,z
loop_
    _atom_site_label
    _atom_site_type_symbol
    _atom_site_fract_x
    _atom_site_fract_y
    _atom_site_fract_z
    _atom_site_occupancy
    V1       V        0.94123    0.33416    0.98200    1.000
    V2       V        0.05877    0.16584    0.48200    1.000
    V3       V        0.05877    0.66584    0.01800    1.000
    V4       V        0.94123    0.83416    0.51800    1.000
    Co1      Co       0.80822    0.63445    0.76042    1.000
    Co2      Co       0.19178    0.86555    0.26042    1.000
    Co3      Co       0.19178    0.36555    0.23958    1.000
    Co4      Co       0.80822    0.13445    0.73958    1.000
    P1       P        0.94376    0.51020    0.89318    1.000
    P2       P        0.05624    0.98980    0.39318    1.000
    P3       P        0.05624    0.48980    0.10682    1.000
    P4       P        0.94376    0.01020    0.60682    1.000
    H1       H        0.76540    0.52100    0.99480    1.000
    H2       H        0.67950    0.52280    0.91280    1.000
    H3       H        0.68700    0.40510    0.83300    1.000
    H4       H        0.55100    0.35120    0.87670    1.000
    H5       H        0.50290    0.37470    0.99200    1.000
    H6       H        0.61470    0.42750    0.05110    1.000
    H7       H        0.46330    0.61310    0.80780    1.000
    H8       H        0.25910    0.51010    0.80470    1.000
    H9       H        0.51360    0.36240    0.66840    1.000
    H10      H        0.70930    0.47010    0.67590    1.000
    H11      H        0.87120    0.32610    0.70960    1.000
    H12      H        0.06350    0.43530    0.71850    1.000
    H13      H        0.36400    0.25150    0.75040    1.000
    H14      H        0.16090    0.14790    0.74640    1.000
    H15      H        0.23460    0.97900    0.49480    1.000
    H16      H        0.32050    0.97720    0.41280    1.000
    H17      H        0.31300    0.09490    0.33300    1.000
    H18      H        0.44900    0.14880    0.37670    1.000
    H19      H        0.49710    0.12530    0.49200    1.000
    H20      H        0.38530    0.07250    0.55110    1.000
    H21      H        0.53670    0.88690    0.30780    1.000
    H22      H        0.74090    0.98990    0.30470    1.000
    H23      H        0.48640    0.13760    0.16840    1.000
    H24      H        0.29070    0.02990    0.17590    1.000
    H25      H        0.12880    0.17390    0.20960    1.000
    H26      H        0.93650    0.06470    0.21850    1.000
    H27      H        0.63600    0.24850    0.25040    1.000
    H28      H        0.83910    0.35210    0.24640    1.000
    H29      H        0.23460    0.47900    0.00520    1.000
    H30      H        0.32050    0.47720    0.08720    1.000
    H31      H        0.31300    0.59490    0.16700    1.000
    H32      H        0.44900    0.64880    0.12330    1.000
    H33      H        0.49710    0.62530    0.00800    1.000
    H34      H        0.38530    0.57250    0.94890    1.000
    H35      H        0.53670    0.38690    0.19220    1.000
    H36      H        0.74090    0.48990    0.19530    1.000
    H37      H        0.48640    0.63760    0.33160    1.000
    H38      H        0.29070    0.52990    0.32410    1.000
    H39      H        0.12880    0.67390    0.29040    1.000
    H40      H        0.93650    0.56470    0.28150    1.000
    H41      H        0.63600    0.74850    0.24960    1.000
    H42      H        0.83910    0.85210    0.25360    1.000
    H43      H        0.76540    0.02100    0.50520    1.000
    H44      H        0.67950    0.02280    0.58720    1.000
    H45      H        0.68700    0.90510    0.66700    1.000
    H46      H        0.55100    0.85120    0.62330    1.000
    H47      H        0.50290    0.87470    0.50800    1.000
    H48      H        0.61470    0.92750    0.44890    1.000
    H49      H        0.46330    0.11310    0.69220    1.000
    H50      H        0.25910    0.01010    0.69530    1.000
    H51      H        0.51360    0.86240    0.83160    1.000
    H52      H        0.70930    0.97010    0.82410    1.000
    H53      H        0.87120    0.82610    0.79040    1.000
    H54      H        0.06350    0.93530    0.78150    1.000
    H55      H        0.36400    0.75150    0.74960    1.000
    H56      H        0.16090    0.64790    0.75360    1.000
    C1       C        0.75860    0.49450    0.94260    1.000
    C2       C        0.66340    0.36240    0.87470    1.000
    C3       C        0.73480    0.27890    0.85440    1.000
    C4       C        0.60820    0.37990    0.01280    1.000
    C5       C        0.64190    0.29570    0.05310    1.000
    C6       C        0.47380    0.56100    0.77990    1.000
    C7       C        0.35100    0.50000    0.77810    1.000
    C8       C        0.36390    0.42370    0.73700    1.000
    C9       C        0.50070    0.41310    0.69800    1.000
    C10      C        0.61710    0.47770    0.70310    1.000
    C11      C        0.97260    0.31110    0.71910    1.000
    C12      C        0.08670    0.37650    0.72320    1.000
    C13      C        0.23630    0.35500    0.73420    1.000
    C14      C        0.26300    0.26840    0.74270    1.000
    C15      C        0.14150    0.20700    0.73980    1.000
    C16      C        0.24140    0.00550    0.44260    1.000
    C17      C        0.33660    0.13760    0.37470    1.000
    C18      C        0.26520    0.22110    0.35440    1.000
    C19      C        0.39180    0.12010    0.51280    1.000
    C20      C        0.35810    0.20430    0.55310    1.000
    C21      C        0.52620    0.93900    0.27990    1.000
    C22      C        0.64900    0.00000    0.27810    1.000
    C23      C        0.63610    0.07630    0.23700    1.000
    C24      C        0.49930    0.08690    0.19800    1.000
    C25      C        0.38290    0.02230    0.20310    1.000
    C26      C        0.02740    0.18890    0.21910    1.000
    C27      C        0.91330    0.12350    0.22320    1.000
    C28      C        0.76370    0.14500    0.23420    1.000
    C29      C        0.73700    0.23160    0.24270    1.000
    C30      C        0.85850    0.29300    0.23980    1.000
    C31      C        0.24140    0.50550    0.05740    1.000
    C32      C        0.33660    0.63760    0.12530    1.000
    C33      C        0.26520    0.72110    0.14560    1.000
    C34      C        0.39180    0.62010    0.98720    1.000
    C35      C        0.35810    0.70430    0.94690    1.000
    C36      C        0.52620    0.43900    0.22010    1.000
    C37      C        0.64900    0.50000    0.22190    1.000
    C38      C        0.63610    0.57630    0.26300    1.000
    C39      C        0.49930    0.58690    0.30200    1.000
    C40      C        0.38290    0.52230    0.29690    1.000
    C41      C        0.02740    0.68890    0.28090    1.000
    C42      C        0.91330    0.62350    0.27680    1.000
    C43      C        0.76370    0.64500    0.26580    1.000
    C44      C        0.73700    0.73160    0.25730    1.000
    C45      C        0.85850    0.79300    0.26020    1.000
    C46      C        0.75860    0.99450    0.55740    1.000
    C47      C        0.66340    0.86240    0.62530    1.000
    C48      C        0.73480    0.77890    0.64560    1.000
    C49      C        0.60820    0.87990    0.48720    1.000
    C50      C        0.64190    0.79570    0.44690    1.000
    C51      C        0.47380    0.06100    0.72010    1.000
    C52      C        0.35100    0.00000    0.72190    1.000
    C53      C        0.36390    0.92370    0.76300    1.000
    C54      C        0.50070    0.91310    0.80200    1.000
    C55      C        0.61710    0.97770    0.79690    1.000
    C56      C        0.97260    0.81110    0.78090    1.000
    C57      C        0.08670    0.87650    0.77680    1.000
    C58      C        0.23630    0.85500    0.76580    1.000
    C59      C        0.26300    0.76840    0.75730    1.000
    C60      C        0.14150    0.70700    0.76020    1.000
    N1       N        0.71630    0.40046    0.94939    1.000
    N2       N        0.60710    0.55025    0.74423    1.000
    N3       N        0.99720    0.22727    0.72802    1.000
    N4       N        0.28370    0.09954    0.44939    1.000
    N5       N        0.39290    0.94975    0.24423    1.000
    N6       N        0.00280    0.27273    0.22802    1.000
    N7       N        0.28370    0.59954    0.05061    1.000
    N8       N        0.39290    0.44975    0.25577    1.000
    N9       N        0.00280    0.77273    0.27198    1.000
    N10      N        0.71630    0.90046    0.55061    1.000
    N11      N        0.60710    0.05025    0.75577    1.000
    N12      N        0.99720    0.72727    0.77198    1.000
    O1       O        0.91820    0.53310    0.80932    1.000
    O2       O        0.04210    0.58096    0.93448    1.000
    O3       O        0.01290    0.42274    0.90311    1.000
    O4       O        0.85100    0.26053    0.89396    1.000
    O5       O        0.68250    0.23443    0.79931    1.000
    O6       O        0.77580    0.26937    0.04514    1.000
    O7       O        0.53970    0.25840    0.09281    1.000
    O8       O        0.08180    0.96690    0.30932    1.000
    O9       O        0.95790    0.91904    0.43448    1.000
    O10      O        0.98710    0.07726    0.40311    1.000
    O11      O        0.14900    0.23947    0.39396    1.000
    O12      O        0.31750    0.26557    0.29931    1.000
    O13      O        0.22420    0.23063    0.54514    1.000
    O14      O        0.46030    0.24160    0.59281    1.000
    O15      O        0.08180    0.46690    0.19068    1.000
    O16      O        0.95790    0.41904    0.06552    1.000
    O17      O        0.98710    0.57726    0.09689    1.000
    O18      O        0.14900    0.73947    0.10604    1.000
    O19      O        0.31750    0.76557    0.20069    1.000
    O20      O        0.22420    0.73063    0.95486    1.000
    O21      O        0.46030    0.74160    0.90719    1.000
    O22      O        0.91820    0.03310    0.69068    1.000
    O23      O        0.04210    0.08096    0.56552    1.000
    O24      O        0.01290    0.92274    0.59689    1.000
    O25      O        0.85100    0.76053    0.60604    1.000
    O26      O        0.68250    0.73443    0.70069    1.000
    O27      O        0.77580    0.76937    0.45486    1.000
    O28      O        0.53970    0.75840    0.40719    1.000
