# CIF file generated by openbabel 3.1.0, see https://openbabel.org
data_I
_chemical_name_common 'image0'
_cell_length_a 10.043
_cell_length_b 31.429
_cell_length_c 11.821
_cell_angle_alpha 90
_cell_angle_beta 92.98
_cell_angle_gamma 90
_space_group_name_H-M_alt 'P 1'
_space_group_name_Hall 'P 1'
loop_
    _symmetry_equiv_pos_as_xyz
    x,y,z
loop_
    _atom_site_label
    _atom_site_type_symbol
    _atom_site_fract_x
    _atom_site_fract_y
    _atom_site_fract_z
    _atom_site_occupancy
    Cu1      Cu       0.33025    0.87446    0.30486    1.000
    Cu2      Cu       0.18025    0.12232    0.26130    1.000
    O1       O        0.40400    0.91783    0.21210    1.000
    O2       O        0.27090    0.91500    0.41000    1.000
    O3       O        0.10140    0.07201    0.19700    1.000
    O4       O        0.31430    0.09264    0.34880    1.000
    N1       N        0.41510    0.82986    0.20740    1.000
    N2       N        0.73970    0.67104    0.89670    1.000
    N3       N        0.25530    0.17478    0.33710    1.000
    N4       N        0.57080    0.34065    0.65370    1.000
    C1       C        0.41700    0.98310    0.11720    1.000
    H1       H        0.48750    0.00140    0.14580    1.000
    H2       H        0.34530    0.00010    0.08460    1.000
    H3       H        0.45000    0.96460    0.06030    1.000
    C2       C        0.36790    0.95730    0.21070    1.000
    C3       C        0.29460    0.97630    0.29500    1.000
    C4       C        0.25240    0.95440    0.38830    1.000
    C5       C        0.17550    0.97770    0.47660    1.000
    H4       H        0.08640    0.98320    0.44700    1.000
    H5       H        0.21920    0.00410    0.49530    1.000
    H6       H        0.17240    0.96040    0.54350    1.000
    C6       C        0.05600    0.99930    0.16760    1.000
    H7       H        0.97520    0.01130    0.13420    1.000
    H8       H        0.03460    0.97960    0.22590    1.000
    H9       H        0.10300    0.98480    0.11050    1.000
    C7       C        0.14220    0.03440    0.21800    1.000
    C8       C        0.25990    0.02290    0.28230    1.000
    C9       C        0.34000    0.05310    0.33920    1.000
    C10      C        0.47180    0.04090    0.39870    1.000
    H10      H        0.53470    0.06360    0.39130    1.000
    H11      H        0.50520    0.01550    0.36500    1.000
    H12      H        0.45890    0.03580    0.47750    1.000
    C11      C        0.43000    0.83450    0.09790    1.000
    H13      H        0.39670    0.85890    0.06260    1.000
    C12      C        0.49350    0.80440    0.03250    1.000
    H14      H        0.50180    0.80900    0.95550    1.000
    C13      C        0.54400    0.76750    0.08310    1.000
    C14      C        0.52800    0.76290    0.19890    1.000
    H15      H        0.55940    0.73860    0.23650    1.000
    C15      C        0.46570    0.79440    0.25720    1.000
    H16      H        0.45810    0.79100    0.33480    1.000
    C16      C        0.61200    0.73390    0.01850    1.000
    C17      C        0.59160    0.73040    0.90390    1.000
    H17      H        0.53410    0.74920    0.86500    1.000
    C18      C        0.65620    0.69930    0.84580    1.000
    H18      H        0.64120    0.69770    0.76760    1.000
    C19      C        0.75720    0.67360    0.00800    1.000
    H19      H        0.81230    0.65360    0.04500    1.000
    C20      C        0.69810    0.70440    0.07280    1.000
    H20      H        0.71520    0.70540    0.15090    1.000
    C21      C        0.37750    0.18960    0.31120    1.000
    H21      H        0.42390    0.17580    0.25590    1.000
    C22      C        0.43410    0.22460    0.36520    1.000
    H22      H        0.51500    0.23500    0.34210    1.000
    C23      C        0.37330    0.24440    0.45250    1.000
    C24      C        0.25120    0.22780    0.48230    1.000
    H23      H        0.20710    0.23920    0.54260    1.000
    C25      C        0.19700    0.19390    0.41990    1.000
    H24      H        0.11340    0.18410    0.43820    1.000
    C26      C        0.43830    0.27930    0.51810    1.000
    C27      C        0.57520    0.28530    0.51580    1.000
    H25      H        0.62510    0.26900    0.46790    1.000
    C28      C        0.63620    0.31530    0.58450    1.000
    H26      H        0.72820    0.31830    0.58300    1.000
    C29      C        0.43610    0.33620    0.65230    1.000
    H27      H        0.38770    0.35380    0.69830    1.000
    C30      C        0.36920    0.30670    0.58540    1.000
    H28      H        0.27670    0.30510    0.58520    1.000
    Cu3      Cu       0.83025    0.62554    0.80486    1.000
    Cu4      Cu       0.68025    0.37768    0.76130    1.000
    O5       O        0.90400    0.58217    0.71210    1.000
    O6       O        0.77090    0.58500    0.91000    1.000
    O7       O        0.60140    0.42799    0.69700    1.000
    O8       O        0.81430    0.40736    0.84880    1.000
    N5       N        0.91510    0.67014    0.70740    1.000
    N6       N        0.23970    0.82896    0.39670    1.000
    N7       N        0.75530    0.32522    0.83710    1.000
    N8       N        0.07080    0.15935    0.15370    1.000
    C31      C        0.91700    0.51690    0.61720    1.000
    H29      H        0.98750    0.49860    0.64580    1.000
    H30      H        0.84530    0.49990    0.58460    1.000
    H31      H        0.95000    0.53540    0.56030    1.000
    C32      C        0.86790    0.54270    0.71070    1.000
    C33      C        0.79460    0.52370    0.79500    1.000
    C34      C        0.75240    0.54560    0.88830    1.000
    C35      C        0.67550    0.52230    0.97660    1.000
    H32      H        0.58640    0.51680    0.94700    1.000
    H33      H        0.71920    0.49590    0.99530    1.000
    H34      H        0.67240    0.53960    0.04350    1.000
    C36      C        0.55600    0.50070    0.66760    1.000
    H35      H        0.47520    0.48870    0.63420    1.000
    H36      H        0.53460    0.52040    0.72590    1.000
    H37      H        0.60300    0.51520    0.61050    1.000
    C37      C        0.64220    0.46560    0.71800    1.000
    C38      C        0.75990    0.47710    0.78230    1.000
    C39      C        0.84000    0.44690    0.83920    1.000
    C40      C        0.97180    0.45910    0.89870    1.000
    H38      H        0.03470    0.43640    0.89130    1.000
    H39      H        0.00520    0.48450    0.86500    1.000
    H40      H        0.95890    0.46420    0.97750    1.000
    C41      C        0.93000    0.66550    0.59790    1.000
    H41      H        0.89670    0.64110    0.56260    1.000
    C42      C        0.99350    0.69560    0.53250    1.000
    H42      H        0.00180    0.69100    0.45550    1.000
    C43      C        0.04400    0.73250    0.58310    1.000
    C44      C        0.02800    0.73710    0.69890    1.000
    H43      H        0.05940    0.76140    0.73650    1.000
    C45      C        0.96570    0.70560    0.75720    1.000
    H44      H        0.95810    0.70900    0.83480    1.000
    C46      C        0.11200    0.76610    0.51850    1.000
    C47      C        0.09160    0.76960    0.40390    1.000
    H45      H        0.03410    0.75080    0.36500    1.000
    C48      C        0.15620    0.80070    0.34580    1.000
    H46      H        0.14120    0.80230    0.26760    1.000
    C49      C        0.25720    0.82640    0.50800    1.000
    H47      H        0.31230    0.84640    0.54500    1.000
    C50      C        0.19810    0.79560    0.57280    1.000
    H48      H        0.21520    0.79460    0.65090    1.000
    C51      C        0.87750    0.31040    0.81120    1.000
    H49      H        0.92390    0.32420    0.75590    1.000
    C52      C        0.93410    0.27540    0.86520    1.000
    H50      H        0.01500    0.26500    0.84210    1.000
    C53      C        0.87330    0.25560    0.95250    1.000
    C54      C        0.75120    0.27220    0.98230    1.000
    H51      H        0.70710    0.26080    0.04260    1.000
    C55      C        0.69700    0.30610    0.91990    1.000
    H52      H        0.61340    0.31590    0.93820    1.000
    C56      C        0.93830    0.22070    0.01810    1.000
    C57      C        0.07520    0.21470    0.01580    1.000
    H53      H        0.12510    0.23100    0.96790    1.000
    C58      C        0.13620    0.18470    0.08450    1.000
    H54      H        0.22820    0.18170    0.08300    1.000
    C59      C        0.93610    0.16380    0.15230    1.000
    H55      H        0.88770    0.14620    0.19830    1.000
    C60      C        0.86920    0.19330    0.08540    1.000
    H56      H        0.77670    0.19490    0.08520    1.000
    Cu5      Cu       0.16975    0.37446    0.19514    1.000
    Cu6      Cu       0.31975    0.62232    0.23870    1.000
    O9       O        0.09600    0.41783    0.28790    1.000
    O10      O        0.22910    0.41500    0.09000    1.000
    O11      O        0.39860    0.57201    0.30300    1.000
    O12      O        0.18570    0.59264    0.15120    1.000
    N9       N        0.08490    0.32986    0.29260    1.000
    N10      N        0.76030    0.17104    0.60330    1.000
    N11      N        0.24470    0.67478    0.16290    1.000
    N12      N        0.92920    0.84065    0.84630    1.000
    C61      C        0.08300    0.48310    0.38280    1.000
    H57      H        0.01250    0.50140    0.35420    1.000
    H58      H        0.15470    0.50010    0.41540    1.000
    H59      H        0.05000    0.46460    0.43970    1.000
    C62      C        0.13210    0.45730    0.28930    1.000
    C63      C        0.20540    0.47630    0.20500    1.000
    C64      C        0.24760    0.45440    0.11170    1.000
    C65      C        0.32450    0.47770    0.02340    1.000
    H60      H        0.41360    0.48320    0.05300    1.000
    H61      H        0.28080    0.50410    0.00470    1.000
    H62      H        0.32760    0.46040    0.95650    1.000
    C66      C        0.44400    0.49930    0.33240    1.000
    H63      H        0.52480    0.51130    0.36580    1.000
    H64      H        0.46540    0.47960    0.27410    1.000
    H65      H        0.39700    0.48480    0.38950    1.000
    C67      C        0.35780    0.53440    0.28200    1.000
    C68      C        0.24010    0.52290    0.21770    1.000
    C69      C        0.16000    0.55310    0.16080    1.000
    C70      C        0.02820    0.54090    0.10130    1.000
    H66      H        0.96530    0.56360    0.10870    1.000
    H67      H        0.99480    0.51550    0.13500    1.000
    H68      H        0.04110    0.53580    0.02250    1.000
    C71      C        0.07000    0.33450    0.40210    1.000
    H69      H        0.10330    0.35890    0.43740    1.000
    C72      C        0.00650    0.30440    0.46750    1.000
    H70      H        0.99820    0.30900    0.54450    1.000
    C73      C        0.95600    0.26750    0.41690    1.000
    C74      C        0.97200    0.26290    0.30110    1.000
    H71      H        0.94060    0.23860    0.26350    1.000
    C75      C        0.03430    0.29440    0.24280    1.000
    H72      H        0.04190    0.29100    0.16520    1.000
    C76      C        0.88800    0.23390    0.48150    1.000
    C77      C        0.90840    0.23040    0.59610    1.000
    H73      H        0.96590    0.24920    0.63500    1.000
    C78      C        0.84380    0.19930    0.65420    1.000
    H74      H        0.85880    0.19770    0.73240    1.000
    C79      C        0.74280    0.17360    0.49200    1.000
    H75      H        0.68770    0.15360    0.45500    1.000
    C80      C        0.80190    0.20440    0.42720    1.000
    H76      H        0.78480    0.20540    0.34910    1.000
    C81      C        0.12250    0.68960    0.18880    1.000
    H77      H        0.07610    0.67580    0.24410    1.000
    C82      C        0.06590    0.72460    0.13480    1.000
    H78      H        0.98500    0.73500    0.15790    1.000
    C83      C        0.12670    0.74440    0.04750    1.000
    C84      C        0.24880    0.72780    0.01770    1.000
    H79      H        0.29290    0.73920    0.95740    1.000
    C85      C        0.30300    0.69390    0.08010    1.000
    H80      H        0.38660    0.68410    0.06180    1.000
    C86      C        0.06170    0.77930    0.98190    1.000
    C87      C        0.92480    0.78530    0.98420    1.000
    H81      H        0.87490    0.76900    0.03210    1.000
    C88      C        0.86380    0.81530    0.91550    1.000
    H82      H        0.77180    0.81830    0.91700    1.000
    C89      C        0.06390    0.83620    0.84770    1.000
    H83      H        0.11230    0.85380    0.80170    1.000
    C90      C        0.13080    0.80670    0.91460    1.000
    H84      H        0.22330    0.80510    0.91480    1.000
    Cu7      Cu       0.66975    0.12554    0.69514    1.000
    Cu8      Cu       0.81975    0.87768    0.73870    1.000
    O13      O        0.59600    0.08217    0.78790    1.000
    O14      O        0.72910    0.08500    0.59000    1.000
    O15      O        0.89860    0.92799    0.80300    1.000
    O16      O        0.68570    0.90736    0.65120    1.000
    N13      N        0.58490    0.17014    0.79260    1.000
    N14      N        0.26030    0.32896    0.10330    1.000
    N15      N        0.74470    0.82522    0.66290    1.000
    N16      N        0.42920    0.65935    0.34630    1.000
    C91      C        0.58300    0.01690    0.88280    1.000
    H85      H        0.51250    0.99860    0.85420    1.000
    H86      H        0.65470    0.99990    0.91540    1.000
    H87      H        0.55000    0.03540    0.93970    1.000
    C92      C        0.63210    0.04270    0.78930    1.000
    C93      C        0.70540    0.02370    0.70500    1.000
    C94      C        0.74760    0.04560    0.61170    1.000
    C95      C        0.82450    0.02230    0.52340    1.000
    H88      H        0.91360    0.01680    0.55300    1.000
    H89      H        0.78080    0.99590    0.50470    1.000
    H90      H        0.82760    0.03960    0.45650    1.000
    C96      C        0.94400    0.00070    0.83240    1.000
    H91      H        0.02480    0.98870    0.86580    1.000
    H92      H        0.96540    0.02040    0.77410    1.000
    H93      H        0.89700    0.01520    0.88950    1.000
    C97      C        0.85780    0.96560    0.78200    1.000
    C98      C        0.74010    0.97710    0.71770    1.000
    C99      C        0.66000    0.94690    0.66080    1.000
    C100     C        0.52820    0.95910    0.60130    1.000
    H94      H        0.46530    0.93640    0.60870    1.000
    H95      H        0.49480    0.98450    0.63500    1.000
    H96      H        0.54110    0.96420    0.52250    1.000
    C101     C        0.57000    0.16550    0.90210    1.000
    H97      H        0.60330    0.14110    0.93740    1.000
    C102     C        0.50650    0.19560    0.96750    1.000
    H98      H        0.49820    0.19100    0.04450    1.000
    C103     C        0.45600    0.23250    0.91690    1.000
    C104     C        0.47200    0.23710    0.80110    1.000
    H99      H        0.44060    0.26140    0.76350    1.000
    C105     C        0.53430    0.20560    0.74280    1.000
    H100     H        0.54190    0.20900    0.66520    1.000
    C106     C        0.38800    0.26610    0.98150    1.000
    C107     C        0.40840    0.26960    0.09610    1.000
    H101     H        0.46590    0.25080    0.13500    1.000
    C108     C        0.34380    0.30070    0.15420    1.000
    H102     H        0.35880    0.30230    0.23240    1.000
    C109     C        0.24280    0.32640    0.99200    1.000
    H103     H        0.18770    0.34640    0.95500    1.000
    C110     C        0.30190    0.29560    0.92720    1.000
    H104     H        0.28480    0.29460    0.84910    1.000
    C111     C        0.62250    0.81040    0.68880    1.000
    H105     H        0.57610    0.82420    0.74410    1.000
    C112     C        0.56590    0.77540    0.63480    1.000
    H106     H        0.48500    0.76500    0.65790    1.000
    C113     C        0.62670    0.75560    0.54750    1.000
    C114     C        0.74880    0.77220    0.51770    1.000
    H107     H        0.79290    0.76080    0.45740    1.000
    C115     C        0.80300    0.80610    0.58010    1.000
    H108     H        0.88660    0.81590    0.56180    1.000
    C116     C        0.56170    0.72070    0.48190    1.000
    C117     C        0.42480    0.71470    0.48420    1.000
    H109     H        0.37490    0.73100    0.53210    1.000
    C118     C        0.36380    0.68470    0.41550    1.000
    H110     H        0.27180    0.68170    0.41700    1.000
    C119     C        0.56390    0.66380    0.34770    1.000
    H111     H        0.61230    0.64620    0.30170    1.000
    C120     C        0.63080    0.69330    0.41460    1.000
    H112     H        0.72330    0.69490    0.41480    1.000
