# CIF file generated by openbabel 3.1.0, see https://openbabel.org
data_I
_chemical_name_common 'image0'
_cell_length_a 29.054
_cell_length_b 29.054
_cell_length_c 12.6638
_cell_angle_alpha 90
_cell_angle_beta 90
_cell_angle_gamma 120
_space_group_name_H-M_alt 'P 1'
_space_group_name_Hall 'P 1'
loop_
    _symmetry_equiv_pos_as_xyz
    x,y,z
loop_
    _atom_site_label
    _atom_site_type_symbol
    _atom_site_fract_x
    _atom_site_fract_y
    _atom_site_fract_z
    _atom_site_occupancy
    Ag1      Ag       0.47070    0.07052    0.21322    1.000
    N1       N        0.44400    0.13040    0.29820    1.000
    N2       N        0.41800    0.20180    0.38650    1.000
    N3       N        0.34400    0.07820    0.95110    1.000
    N4       N        0.42560    0.07960    0.07120    1.000
    C1       C        0.44320    0.16930    0.23990    1.000
    C2       C        0.37840    0.12090    0.00580    1.000
    H1       H        0.37480    0.15160    0.00440    1.000
    C3       C        0.39250    0.03700    0.01510    1.000
    H2       H        0.39660    0.00660    0.01680    1.000
    C4       C        0.41940    0.12230    0.06470    1.000
    C5       C        0.35260    0.03590    0.95490    1.000
    H3       H        0.33030    0.00490    0.91490    1.000
    C6       C        0.41530    0.16250    0.44160    1.000
    H4       H        0.40380    0.15820    0.51290    1.000
    C7       C        0.42860    0.12770    0.39990    1.000
    H5       H        0.42710    0.10040    0.44370    1.000
    C8       C        0.43050    0.20440    0.28410    1.000
    H6       H        0.43070    0.23130    0.24120    1.000
    C9       C        0.45810    0.17130    0.12600    1.000
    H7       H        0.49390    0.17520    0.12170    1.000
    H8       H        0.45990    0.20300    0.09270    1.000
    Ag2      Ag       0.13737    0.40385    0.54655    1.000
    N5       N        0.11067    0.46373    0.63153    1.000
    N6       N        0.08467    0.53513    0.71983    1.000
    N7       N        0.01067    0.41153    0.28443    1.000
    N8       N        0.09227    0.41293    0.40453    1.000
    C10      C        0.10987    0.50263    0.57323    1.000
    C11      C        0.04507    0.45423    0.33913    1.000
    H9       H        0.04147    0.48493    0.33773    1.000
    C12      C        0.05917    0.37033    0.34843    1.000
    H10      H        0.06327    0.33993    0.35013    1.000
    C13      C        0.08607    0.45563    0.39803    1.000
    C14      C        0.01927    0.36923    0.28823    1.000
    H11      H        0.99697    0.33823    0.24823    1.000
    C15      C        0.08197    0.49583    0.77493    1.000
    H12      H        0.07047    0.49153    0.84623    1.000
    C16      C        0.09527    0.46103    0.73323    1.000
    H13      H        0.09377    0.43373    0.77703    1.000
    C17      C        0.09717    0.53773    0.61743    1.000
    H14      H        0.09737    0.56463    0.57453    1.000
    C18      C        0.12477    0.50463    0.45933    1.000
    H15      H        0.16057    0.50853    0.45503    1.000
    H16      H        0.12657    0.53633    0.42603    1.000
    Ag3      Ag       0.80403    0.73719    0.87989    1.000
    N9       N        0.77733    0.79707    0.96487    1.000
    N10      N        0.75133    0.86847    0.05317    1.000
    N11      N        0.67733    0.74487    0.61777    1.000
    N12      N        0.75893    0.74627    0.73787    1.000
    C19      C        0.77653    0.83597    0.90657    1.000
    C20      C        0.71173    0.78757    0.67247    1.000
    H17      H        0.70813    0.81827    0.67107    1.000
    C21      C        0.72583    0.70367    0.68177    1.000
    H18      H        0.72993    0.67327    0.68347    1.000
    C22      C        0.75273    0.78897    0.73137    1.000
    C23      C        0.68593    0.70257    0.62157    1.000
    H19      H        0.66363    0.67157    0.58157    1.000
    C24      C        0.74863    0.82917    0.10827    1.000
    H20      H        0.73713    0.82487    0.17957    1.000
    C25      C        0.76193    0.79437    0.06657    1.000
    H21      H        0.76043    0.76707    0.11037    1.000
    C26      C        0.76383    0.87107    0.95077    1.000
    H22      H        0.76403    0.89797    0.90787    1.000
    C27      C        0.79143    0.83797    0.79267    1.000
    H23      H        0.82723    0.84187    0.78837    1.000
    H24      H        0.79323    0.86967    0.75937    1.000
    Ag4      Ag       0.92948    0.40018    0.21322    1.000
    N13      N        0.86960    0.31360    0.29820    1.000
    N14      N        0.79820    0.21620    0.38650    1.000
    N15      N        0.92180    0.26580    0.95110    1.000
    N16      N        0.92040    0.34600    0.07120    1.000
    C28      C        0.83070    0.27390    0.23990    1.000
    C29      C        0.87910    0.25750    0.00580    1.000
    H25      H        0.84840    0.22320    0.00440    1.000
    C30      C        0.96300    0.35550    0.01510    1.000
    H26      H        0.99340    0.39000    0.01680    1.000
    C31      C        0.87770    0.29710    0.06470    1.000
    C32      C        0.96410    0.31670    0.95490    1.000
    H27      H        0.99510    0.32540    0.91490    1.000
    C33      C        0.83750    0.25280    0.44160    1.000
    H28      H        0.84180    0.24560    0.51290    1.000
    C34      C        0.87230    0.30090    0.39990    1.000
    H29      H        0.89960    0.32670    0.44370    1.000
    C35      C        0.79560    0.22610    0.28410    1.000
    H30      H        0.76870    0.19940    0.24120    1.000
    C36      C        0.82870    0.28680    0.12600    1.000
    H31      H        0.82480    0.31870    0.12170    1.000
    H32      H        0.79700    0.25690    0.09270    1.000
    Ag5      Ag       0.59615    0.73351    0.54655    1.000
    N17      N        0.53627    0.64693    0.63153    1.000
    N18      N        0.46487    0.54953    0.71983    1.000
    N19      N        0.58847    0.59913    0.28443    1.000
    N20      N        0.58707    0.67933    0.40453    1.000
    C37      C        0.49737    0.60723    0.57323    1.000
    C38      C        0.54577    0.59083    0.33913    1.000
    H33      H        0.51507    0.55653    0.33773    1.000
    C39      C        0.62967    0.68883    0.34843    1.000
    H34      H        0.66007    0.72333    0.35013    1.000
    C40      C        0.54437    0.63043    0.39803    1.000
    C41      C        0.63077    0.65003    0.28823    1.000
    H35      H        0.66177    0.65873    0.24823    1.000
    C42      C        0.50417    0.58613    0.77493    1.000
    H36      H        0.50847    0.57893    0.84623    1.000
    C43      C        0.53897    0.63423    0.73323    1.000
    H37      H        0.56627    0.66003    0.77703    1.000
    C44      C        0.46227    0.55943    0.61743    1.000
    H38      H        0.43537    0.53273    0.57453    1.000
    C45      C        0.49537    0.62013    0.45933    1.000
    H39      H        0.49147    0.65203    0.45503    1.000
    H40      H        0.46367    0.59023    0.42603    1.000
    Ag6      Ag       0.26281    0.06685    0.87989    1.000
    N21      N        0.20293    0.98027    0.96487    1.000
    N22      N        0.13153    0.88287    0.05317    1.000
    N23      N        0.25513    0.93247    0.61777    1.000
    N24      N        0.25373    0.01267    0.73787    1.000
    C46      C        0.16403    0.94057    0.90657    1.000
    C47      C        0.21243    0.92417    0.67247    1.000
    H41      H        0.18173    0.88987    0.67107    1.000
    C48      C        0.29633    0.02217    0.68177    1.000
    H42      H        0.32673    0.05667    0.68347    1.000
    C49      C        0.21103    0.96377    0.73137    1.000
    C50      C        0.29743    0.98337    0.62157    1.000
    H43      H        0.32843    0.99207    0.58157    1.000
    C51      C        0.17083    0.91947    0.10827    1.000
    H44      H        0.17513    0.91227    0.17957    1.000
    C52      C        0.20563    0.96757    0.06657    1.000
    H45      H        0.23293    0.99337    0.11037    1.000
    C53      C        0.12893    0.89277    0.95077    1.000
    H46      H        0.10203    0.86607    0.90787    1.000
    C54      C        0.16203    0.95347    0.79267    1.000
    H47      H        0.15813    0.98537    0.78837    1.000
    H48      H        0.13033    0.92357    0.75937    1.000
    Ag7      Ag       0.59982    0.52930    0.21322    1.000
    N25      N        0.68640    0.55600    0.29820    1.000
    N26      N        0.78380    0.58200    0.38650    1.000
    N27      N        0.73420    0.65600    0.95110    1.000
    N28      N        0.65400    0.57440    0.07120    1.000
    C55      C        0.72610    0.55680    0.23990    1.000
    C56      C        0.74250    0.62160    0.00580    1.000
    H49      H        0.77680    0.62520    0.00440    1.000
    C57      C        0.64450    0.60750    0.01510    1.000
    H50      H        0.61000    0.60340    0.01680    1.000
    C58      C        0.70290    0.58060    0.06470    1.000
    C59      C        0.68330    0.64740    0.95490    1.000
    H51      H        0.67460    0.66970    0.91490    1.000
    C60      C        0.74720    0.58470    0.44160    1.000
    H52      H        0.75440    0.59620    0.51290    1.000
    C61      C        0.69910    0.57140    0.39990    1.000
    H53      H        0.67330    0.57290    0.44370    1.000
    C62      C        0.77390    0.56950    0.28410    1.000
    H54      H        0.80060    0.56930    0.24120    1.000
    C63      C        0.71320    0.54190    0.12600    1.000
    H55      H        0.68130    0.50610    0.12170    1.000
    H56      H        0.74310    0.54010    0.09270    1.000
    Ag8      Ag       0.26649    0.86263    0.54655    1.000
    N29      N        0.35307    0.88933    0.63153    1.000
    N30      N        0.45047    0.91533    0.71983    1.000
    N31      N        0.40087    0.98933    0.28443    1.000
    N32      N        0.32067    0.90773    0.40453    1.000
    C64      C        0.39277    0.89013    0.57323    1.000
    C65      C        0.40917    0.95493    0.33913    1.000
    H57      H        0.44347    0.95853    0.33773    1.000
    C66      C        0.31117    0.94083    0.34843    1.000
    H58      H        0.27667    0.93673    0.35013    1.000
    C67      C        0.36957    0.91393    0.39803    1.000
    C68      C        0.34997    0.98073    0.28823    1.000
    H59      H        0.34127    0.00303    0.24823    1.000
    C69      C        0.41387    0.91803    0.77493    1.000
    H60      H        0.42107    0.92953    0.84623    1.000
    C70      C        0.36577    0.90473    0.73323    1.000
    H61      H        0.33997    0.90623    0.77703    1.000
    C71      C        0.44057    0.90283    0.61743    1.000
    H62      H        0.46727    0.90263    0.57453    1.000
    C72      C        0.37987    0.87523    0.45933    1.000
    H63      H        0.34797    0.83943    0.45503    1.000
    H64      H        0.40977    0.87343    0.42603    1.000
    Ag9      Ag       0.93315    0.19597    0.87989    1.000
    N33      N        0.01973    0.22267    0.96487    1.000
    N34      N        0.11713    0.24867    0.05317    1.000
    N35      N        0.06753    0.32267    0.61777    1.000
    N36      N        0.98733    0.24107    0.73787    1.000
    C73      C        0.05943    0.22347    0.90657    1.000
    C74      C        0.07583    0.28827    0.67247    1.000
    H65      H        0.11013    0.29187    0.67107    1.000
    C75      C        0.97783    0.27417    0.68177    1.000
    H66      H        0.94333    0.27007    0.68347    1.000
    C76      C        0.03623    0.24727    0.73137    1.000
    C77      C        0.01663    0.31407    0.62157    1.000
    H67      H        0.00793    0.33637    0.58157    1.000
    C78      C        0.08053    0.25137    0.10827    1.000
    H68      H        0.08773    0.26287    0.17957    1.000
    C79      C        0.03243    0.23807    0.06657    1.000
    H69      H        0.00663    0.23957    0.11037    1.000
    C80      C        0.10723    0.23617    0.95077    1.000
    H70      H        0.13393    0.23597    0.90787    1.000
    C81      C        0.04653    0.20857    0.79267    1.000
    H71      H        0.01463    0.17277    0.78837    1.000
    H72      H        0.07643    0.20677    0.75937    1.000
    Ag10     Ag       0.52930    0.92948    0.78678    1.000
    N37      N        0.55600    0.86960    0.70180    1.000
    N38      N        0.58200    0.79820    0.61350    1.000
    N39      N        0.65600    0.92180    0.04890    1.000
    N40      N        0.57440    0.92040    0.92880    1.000
    C82      C        0.55680    0.83070    0.76010    1.000
    C83      C        0.62160    0.87910    0.99420    1.000
    H73      H        0.62520    0.84840    0.99560    1.000
    C84      C        0.60750    0.96300    0.98490    1.000
    H74      H        0.60340    0.99340    0.98320    1.000
    C85      C        0.58060    0.87770    0.93530    1.000
    C86      C        0.64740    0.96410    0.04510    1.000
    H75      H        0.66970    0.99510    0.08510    1.000
    C87      C        0.58470    0.83750    0.55840    1.000
    H76      H        0.59620    0.84180    0.48710    1.000
    C88      C        0.57140    0.87230    0.60010    1.000
    H77      H        0.57290    0.89960    0.55630    1.000
    C89      C        0.56950    0.79560    0.71590    1.000
    H78      H        0.56930    0.76870    0.75880    1.000
    C90      C        0.54190    0.82870    0.87400    1.000
    H79      H        0.50610    0.82480    0.87830    1.000
    H80      H        0.54010    0.79700    0.90730    1.000
    Ag11     Ag       0.19597    0.26281    0.12011    1.000
    N41      N        0.22267    0.20293    0.03513    1.000
    N42      N        0.24867    0.13153    0.94683    1.000
    N43      N        0.32267    0.25513    0.38223    1.000
    N44      N        0.24107    0.25373    0.26213    1.000
    C91      C        0.22347    0.16403    0.09343    1.000
    C92      C        0.28827    0.21243    0.32753    1.000
    H81      H        0.29187    0.18173    0.32893    1.000
    C93      C        0.27417    0.29633    0.31823    1.000
    H82      H        0.27007    0.32673    0.31653    1.000
    C94      C        0.24727    0.21103    0.26863    1.000
    C95      C        0.31407    0.29743    0.37843    1.000
    H83      H        0.33637    0.32843    0.41843    1.000
    C96      C        0.25137    0.17083    0.89173    1.000
    H84      H        0.26287    0.17513    0.82043    1.000
    C97      C        0.23807    0.20563    0.93343    1.000
    H85      H        0.23957    0.23293    0.88963    1.000
    C98      C        0.23617    0.12893    0.04923    1.000
    H86      H        0.23597    0.10203    0.09213    1.000
    C99      C        0.20857    0.16203    0.20733    1.000
    H87      H        0.17277    0.15813    0.21163    1.000
    H88      H        0.20677    0.13033    0.24063    1.000
    Ag12     Ag       0.86263    0.59615    0.45345    1.000
    N45      N        0.88933    0.53627    0.36847    1.000
    N46      N        0.91533    0.46487    0.28017    1.000
    N47      N        0.98933    0.58847    0.71557    1.000
    N48      N        0.90773    0.58707    0.59547    1.000
    C100     C        0.89013    0.49737    0.42677    1.000
    C101     C        0.95493    0.54577    0.66087    1.000
    H89      H        0.95853    0.51507    0.66227    1.000
    C102     C        0.94083    0.62967    0.65157    1.000
    H90      H        0.93673    0.66007    0.64987    1.000
    C103     C        0.91393    0.54437    0.60197    1.000
    C104     C        0.98073    0.63077    0.71177    1.000
    H91      H        0.00303    0.66177    0.75177    1.000
    C105     C        0.91803    0.50417    0.22507    1.000
    H92      H        0.92953    0.50847    0.15377    1.000
    C106     C        0.90473    0.53897    0.26677    1.000
    H93      H        0.90623    0.56627    0.22297    1.000
    C107     C        0.90283    0.46227    0.38257    1.000
    H94      H        0.90263    0.43537    0.42547    1.000
    C108     C        0.87523    0.49537    0.54067    1.000
    H95      H        0.83943    0.49147    0.54497    1.000
    H96      H        0.87343    0.46367    0.57397    1.000
    Ag13     Ag       0.07052    0.59982    0.78678    1.000
    N49      N        0.13040    0.68640    0.70180    1.000
    N50      N        0.20180    0.78380    0.61350    1.000
    N51      N        0.07820    0.73420    0.04890    1.000
    N52      N        0.07960    0.65400    0.92880    1.000
    C109     C        0.16930    0.72610    0.76010    1.000
    C110     C        0.12090    0.74250    0.99420    1.000
    H97      H        0.15160    0.77680    0.99560    1.000
    C111     C        0.03700    0.64450    0.98490    1.000
    H98      H        0.00660    0.61000    0.98320    1.000
    C112     C        0.12230    0.70290    0.93530    1.000
    C113     C        0.03590    0.68330    0.04510    1.000
    H99      H        0.00490    0.67460    0.08510    1.000
    C114     C        0.16250    0.74720    0.55840    1.000
    H100     H        0.15820    0.75440    0.48710    1.000
    C115     C        0.12770    0.69910    0.60010    1.000
    H101     H        0.10040    0.67330    0.55630    1.000
    C116     C        0.20440    0.77390    0.71590    1.000
    H102     H        0.23130    0.80060    0.75880    1.000
    C117     C        0.17130    0.71320    0.87400    1.000
    H103     H        0.17520    0.68130    0.87830    1.000
    H104     H        0.20300    0.74310    0.90730    1.000
    Ag14     Ag       0.73719    0.93315    0.12011    1.000
    N53      N        0.79707    0.01973    0.03513    1.000
    N54      N        0.86847    0.11713    0.94683    1.000
    N55      N        0.74487    0.06753    0.38223    1.000
    N56      N        0.74627    0.98733    0.26213    1.000
    C118     C        0.83597    0.05943    0.09343    1.000
    C119     C        0.78757    0.07583    0.32753    1.000
    H105     H        0.81827    0.11013    0.32893    1.000
    C120     C        0.70367    0.97783    0.31823    1.000
    H106     H        0.67327    0.94333    0.31653    1.000
    C121     C        0.78897    0.03623    0.26863    1.000
    C122     C        0.70257    0.01663    0.37843    1.000
    H107     H        0.67157    0.00793    0.41843    1.000
    C123     C        0.82917    0.08053    0.89173    1.000
    H108     H        0.82487    0.08773    0.82043    1.000
    C124     C        0.79437    0.03243    0.93343    1.000
    H109     H        0.76707    0.00663    0.88963    1.000
    C125     C        0.87107    0.10723    0.04923    1.000
    H110     H        0.89797    0.13393    0.09213    1.000
    C126     C        0.83797    0.04653    0.20733    1.000
    H111     H        0.84187    0.01463    0.21163    1.000
    H112     H        0.86967    0.07643    0.24063    1.000
    Ag15     Ag       0.40385    0.26649    0.45345    1.000
    N57      N        0.46373    0.35307    0.36847    1.000
    N58      N        0.53513    0.45047    0.28017    1.000
    N59      N        0.41153    0.40087    0.71557    1.000
    N60      N        0.41293    0.32067    0.59547    1.000
    C127     C        0.50263    0.39277    0.42677    1.000
    C128     C        0.45423    0.40917    0.66087    1.000
    H113     H        0.48493    0.44347    0.66227    1.000
    C129     C        0.37033    0.31117    0.65157    1.000
    H114     H        0.33993    0.27667    0.64987    1.000
    C130     C        0.45563    0.36957    0.60197    1.000
    C131     C        0.36923    0.34997    0.71177    1.000
    H115     H        0.33823    0.34127    0.75177    1.000
    C132     C        0.49583    0.41387    0.22507    1.000
    H116     H        0.49153    0.42107    0.15377    1.000
    C133     C        0.46103    0.36577    0.26677    1.000
    H117     H        0.43373    0.33997    0.22297    1.000
    C134     C        0.53773    0.44057    0.38257    1.000
    H118     H        0.56463    0.46727    0.42547    1.000
    C135     C        0.50463    0.37987    0.54067    1.000
    H119     H        0.50853    0.34797    0.54497    1.000
    H120     H        0.53633    0.40977    0.57397    1.000
    Ag16     Ag       0.40018    0.47070    0.78678    1.000
    N61      N        0.31360    0.44400    0.70180    1.000
    N62      N        0.21620    0.41800    0.61350    1.000
    N63      N        0.26580    0.34400    0.04890    1.000
    N64      N        0.34600    0.42560    0.92880    1.000
    C136     C        0.27390    0.44320    0.76010    1.000
    C137     C        0.25750    0.37840    0.99420    1.000
    H121     H        0.22320    0.37480    0.99560    1.000
    C138     C        0.35550    0.39250    0.98490    1.000
    H122     H        0.39000    0.39660    0.98320    1.000
    C139     C        0.29710    0.41940    0.93530    1.000
    C140     C        0.31670    0.35260    0.04510    1.000
    H123     H        0.32540    0.33030    0.08510    1.000
    C141     C        0.25280    0.41530    0.55840    1.000
    H124     H        0.24560    0.40380    0.48710    1.000
    C142     C        0.30090    0.42860    0.60010    1.000
    H125     H        0.32670    0.42710    0.55630    1.000
    C143     C        0.22610    0.43050    0.71590    1.000
    H126     H        0.19940    0.43070    0.75880    1.000
    C144     C        0.28680    0.45810    0.87400    1.000
    H127     H        0.31870    0.49390    0.87830    1.000
    H128     H        0.25690    0.45990    0.90730    1.000
    Ag17     Ag       0.06685    0.80403    0.12011    1.000
    N65      N        0.98027    0.77733    0.03513    1.000
    N66      N        0.88287    0.75133    0.94683    1.000
    N67      N        0.93247    0.67733    0.38223    1.000
    N68      N        0.01267    0.75893    0.26213    1.000
    C145     C        0.94057    0.77653    0.09343    1.000
    C146     C        0.92417    0.71173    0.32753    1.000
    H129     H        0.88987    0.70813    0.32893    1.000
    C147     C        0.02217    0.72583    0.31823    1.000
    H130     H        0.05667    0.72993    0.31653    1.000
    C148     C        0.96377    0.75273    0.26863    1.000
    C149     C        0.98337    0.68593    0.37843    1.000
    H131     H        0.99207    0.66363    0.41843    1.000
    C150     C        0.91947    0.74863    0.89173    1.000
    H132     H        0.91227    0.73713    0.82043    1.000
    C151     C        0.96757    0.76193    0.93343    1.000
    H133     H        0.99337    0.76043    0.88963    1.000
    C152     C        0.89277    0.76383    0.04923    1.000
    H134     H        0.86607    0.76403    0.09213    1.000
    C153     C        0.95347    0.79143    0.20733    1.000
    H135     H        0.98537    0.82723    0.21163    1.000
    H136     H        0.92357    0.79323    0.24063    1.000
    Ag18     Ag       0.73351    0.13737    0.45345    1.000
    N69      N        0.64693    0.11067    0.36847    1.000
    N70      N        0.54953    0.08467    0.28017    1.000
    N71      N        0.59913    0.01067    0.71557    1.000
    N72      N        0.67933    0.09227    0.59547    1.000
    C154     C        0.60723    0.10987    0.42677    1.000
    C155     C        0.59083    0.04507    0.66087    1.000
    H137     H        0.55653    0.04147    0.66227    1.000
    C156     C        0.68883    0.05917    0.65157    1.000
    H138     H        0.72333    0.06327    0.64987    1.000
    C157     C        0.63043    0.08607    0.60197    1.000
    C158     C        0.65003    0.01927    0.71177    1.000
    H139     H        0.65873    0.99697    0.75177    1.000
    C159     C        0.58613    0.08197    0.22507    1.000
    H140     H        0.57893    0.07047    0.15377    1.000
    C160     C        0.63423    0.09527    0.26677    1.000
    H141     H        0.66003    0.09377    0.22297    1.000
    C161     C        0.55943    0.09717    0.38257    1.000
    H142     H        0.53273    0.09737    0.42547    1.000
    C162     C        0.62013    0.12477    0.54067    1.000
    H143     H        0.65203    0.16057    0.54497    1.000
    H144     H        0.59023    0.12657    0.57397    1.000
