# CIF file generated by openbabel 3.1.0, see https://openbabel.org
data_I
_chemical_name_common 'image0'
_cell_length_a 9.2467
_cell_length_b 10.715
_cell_length_c 10.84
_cell_angle_alpha 86.19
_cell_angle_beta 84.05
_cell_angle_gamma 81.42
_space_group_name_H-M_alt 'P 1'
_space_group_name_Hall 'P 1'
loop_
    _symmetry_equiv_pos_as_xyz
    x,y,z
loop_
    _atom_site_label
    _atom_site_type_symbol
    _atom_site_fract_x
    _atom_site_fract_y
    _atom_site_fract_z
    _atom_site_occupancy
    La1      La       0.53060    0.73954    0.71967    1.000
    La2      La       0.47811    0.82300    0.31405    1.000
    C1       C        0.28920    0.98960    0.86700    1.000
    C2       C        0.14300    0.99490    0.94220    1.000
    C3       C        0.02440    0.05510    0.88250    1.000
    H1       H        0.04050    0.09340    0.80370    1.000
    C4       C        0.88110    0.05930    0.93870    1.000
    C5       C        0.75600    0.11560    0.86290    1.000
    C6       C        0.78210    0.87910    0.65040    1.000
    C7       C        0.89720    0.94000    0.57300    1.000
    C8       C        0.04320    0.91710    0.59880    1.000
    H2       H        0.07160    0.86090    0.66400    1.000
    C9       C        0.14600    0.97870    0.52660    1.000
    C10      C        0.30320    0.96690    0.55930    1.000
    C11      C        0.28060    0.54760    0.36970    1.000
    C12      C        0.13570    0.51880    0.43870    1.000
    C13      C        0.00750    0.59320    0.40490    1.000
    H3       H        0.01260    0.65600    0.34180    1.000
    C14      C        0.87130    0.57340    0.46550    1.000
    C15      C        0.73720    0.65100    0.42190    1.000
    O1       O        0.38350    0.85930    0.54530    1.000
    O2       O        0.62390    0.67690    0.49860    1.000
    O3       O        0.62890    0.09200    0.89970    1.000
    O4       O        0.78150    0.17630    0.76370    1.000
    O5       O        0.34260    0.06030    0.59800    1.000
    O6       O        0.34700    0.08850    0.84850    1.000
    O7       O        0.73550    0.68790    0.31050    1.000
    O8       O        0.80850    0.76740    0.69220    1.000
    O9       O        0.65360    0.94360    0.66840    1.000
    O10      O        0.34160    0.63110    0.40860    1.000
    O11      O        0.32860    0.48600    0.27330    1.000
    O12      O        0.33570    0.88570    0.81750    1.000
    La3      La       0.46940    0.26046    0.28033    1.000
    La4      La       0.52189    0.17700    0.68595    1.000
    C16      C        0.71080    0.01040    0.13300    1.000
    C17      C        0.85700    0.00510    0.05780    1.000
    C18      C        0.97560    0.94490    0.11750    1.000
    H4       H        0.95950    0.90660    0.19630    1.000
    C19      C        0.11890    0.94070    0.06130    1.000
    C20      C        0.24400    0.88440    0.13710    1.000
    C21      C        0.21790    0.12090    0.34960    1.000
    C22      C        0.10280    0.06000    0.42700    1.000
    C23      C        0.95680    0.08290    0.40120    1.000
    H5       H        0.92840    0.13910    0.33600    1.000
    C24      C        0.85400    0.02130    0.47340    1.000
    C25      C        0.69680    0.03310    0.44070    1.000
    C26      C        0.71940    0.45240    0.63030    1.000
    C27      C        0.86430    0.48120    0.56130    1.000
    C28      C        0.99250    0.40680    0.59510    1.000
    H6       H        0.98740    0.34400    0.65820    1.000
    C29      C        0.12870    0.42660    0.53450    1.000
    C30      C        0.26280    0.34900    0.57810    1.000
    O13      O        0.61650    0.14070    0.45470    1.000
    O14      O        0.37610    0.32310    0.50140    1.000
    O15      O        0.37110    0.90800    0.10030    1.000
    O16      O        0.21850    0.82370    0.23630    1.000
    O17      O        0.65740    0.93970    0.40200    1.000
    O18      O        0.65300    0.91150    0.15150    1.000
    O19      O        0.26450    0.31210    0.68950    1.000
    O20      O        0.19150    0.23260    0.30780    1.000
    O21      O        0.34640    0.05640    0.33160    1.000
    O22      O        0.65840    0.36890    0.59140    1.000
    O23      O        0.67140    0.51400    0.72670    1.000
    O24      O        0.66430    0.11430    0.18250    1.000
