# CIF file generated by openbabel 3.1.0, see https://openbabel.org
data_I
_chemical_name_common 'TADYII_clean'
_cell_length_a 15.9007
_cell_length_b 15.9007
_cell_length_c 15.9007
_cell_angle_alpha 63.1563
_cell_angle_beta 74.0844
_cell_angle_gamma 105.916
_space_group_name_H-M_alt 'P 1'
_space_group_name_Hall 'P 1'
loop_
    _symmetry_equiv_pos_as_xyz
    x,y,z
loop_
    _atom_site_label
    _atom_site_type_symbol
    _atom_site_fract_x
    _atom_site_fract_y
    _atom_site_fract_z
    _atom_site_occupancy
    Ni1      Ni       0.00000    0.50000    0.50000    1.000
    Ni2      Ni       0.50000    0.00000    0.50000    1.000
    Ni3      Ni       0.00000    0.50000    0.00000    1.000
    Ni4      Ni       0.50000    0.50000    0.50000    1.000
    H1       H        0.15920    0.54420    0.29740    1.000
    H2       H        0.25580    0.61580    0.28940    1.000
    H3       H        0.08680    0.66390    0.25790    1.000
    H4       H        0.18690    0.75370    0.22380    1.000
    H5       H        0.93660    0.73190    0.38770    1.000
    H6       H        0.93480    0.65430    0.35230    1.000
    H7       H        0.20140    0.43290    0.41850    1.000
    H8       H        0.20000    0.49450    0.47290    1.000
    H9       H        0.11790    0.75350    0.41980    1.000
    H10      H        0.19870    0.83900    0.30090    1.000
    H11      H        0.14770    0.92800    0.36630    1.000
    H12      H        0.10760    0.93640    0.28460    1.000
    H13      H        0.03670    0.85480    0.40710    1.000
    H14      H        0.17060    0.65500    0.38780    1.000
    H15      H        0.04020    0.36940    0.47580    1.000
    H16      H        0.34080    0.04340    0.61500    1.000
    H17      H        0.24420    0.95480    0.64000    1.000
    H18      H        0.41320    0.15530    0.42290    1.000
    H19      H        0.31310    0.08930    0.43320    1.000
    H20      H        0.56340    0.17570    0.20470    1.000
    H21      H        0.56520    0.21290    0.28050    1.000
    H22      H        0.29860    0.88010    0.76850    1.000
    H23      H        0.30000    0.82710    0.70550    1.000
    H24      H        0.38210    0.96230    0.36440    1.000
    H25      H        0.30130    0.00040    0.35970    1.000
    H26      H        0.35230    0.98600    0.21970    1.000
    H27      H        0.39240    0.10780    0.17120    1.000
    H28      H        0.46330    0.05620    0.18190    1.000
    H29      H        0.32940    0.94160    0.51560    1.000
    H30      H        0.45980    0.98400    0.67080    1.000
    H31      H        0.15840    0.70260    0.95660    1.000
    H32      H        0.09480    0.71060    0.04520    1.000
    H33      H        0.07820    0.74210    0.84470    1.000
    H34      H        0.02250    0.77620    0.91070    1.000
    H35      H        0.88040    0.61230    0.82430    1.000
    H36      H        0.99340    0.64770    0.78710    1.000
    H37      H        0.14860    0.58150    0.11990    1.000
    H38      H        0.03260    0.52710    0.17290    1.000
    H39      H        0.82670    0.58020    0.03770    1.000
    H40      H        0.86010    0.69910    0.99960    1.000
    H41      H        0.70570    0.63370    0.01400    1.000
    H42      H        0.77900    0.71540    0.89220    1.000
    H43      H        0.73810    0.59290    0.94380    1.000
    H44      H        0.95720    0.61220    0.05840    1.000
    H45      H        0.15480    0.52420    0.01600    1.000
    H46      H        0.34160    0.38500    0.45580    1.000
    H47      H        0.40520    0.36000    0.38420    1.000
    H48      H        0.42180    0.57710    0.33610    1.000
    H49      H        0.47750    0.56680    0.24630    1.000
    H50      H        0.61960    0.79530    0.26810    1.000
    H51      H        0.50660    0.71950    0.34570    1.000
    H52      H        0.35140    0.23150    0.56710    1.000
    H53      H        0.46740    0.29450    0.50550    1.000
    H54      H        0.67330    0.63560    0.24650    1.000
    H55      H        0.63990    0.64030    0.16100    1.000
    H56      H        0.79430    0.78030    0.07200    1.000
    H57      H        0.72100    0.82880    0.06360    1.000
    H58      H        0.76190    0.81810    0.14520    1.000
    H59      H        0.54280    0.48440    0.34500    1.000
    H60      H        0.34520    0.32920    0.63060    1.000
    H61      H        0.84080    0.45580    0.70260    1.000
    H62      H        0.74420    0.38420    0.71060    1.000
    H63      H        0.91320    0.33610    0.74210    1.000
    H64      H        0.81310    0.24630    0.77620    1.000
    H65      H        0.06340    0.26810    0.61230    1.000
    H66      H        0.06520    0.34570    0.64770    1.000
    H67      H        0.79860    0.56710    0.58150    1.000
    H68      H        0.80000    0.50550    0.52710    1.000
    H69      H        0.88210    0.24650    0.58020    1.000
    H70      H        0.80130    0.16100    0.69910    1.000
    H71      H        0.85230    0.07200    0.63370    1.000
    H72      H        0.89240    0.06360    0.71540    1.000
    H73      H        0.96330    0.14520    0.59290    1.000
    H74      H        0.82940    0.34500    0.61220    1.000
    H75      H        0.95980    0.63060    0.52420    1.000
    H76      H        0.65920    0.95660    0.38500    1.000
    H77      H        0.75580    0.04520    0.36000    1.000
    H78      H        0.58680    0.84470    0.57710    1.000
    H79      H        0.68690    0.91070    0.56680    1.000
    H80      H        0.43660    0.82430    0.79530    1.000
    H81      H        0.43480    0.78710    0.71950    1.000
    H82      H        0.70140    0.11990    0.23150    1.000
    H83      H        0.70000    0.17290    0.29450    1.000
    H84      H        0.61790    0.03770    0.63560    1.000
    H85      H        0.69870    0.99960    0.64030    1.000
    H86      H        0.64770    0.01400    0.78030    1.000
    H87      H        0.60760    0.89220    0.82880    1.000
    H88      H        0.53670    0.94380    0.81810    1.000
    H89      H        0.67060    0.05840    0.48440    1.000
    H90      H        0.54020    0.01600    0.32920    1.000
    H91      H        0.84160    0.29740    0.04340    1.000
    H92      H        0.90520    0.28940    0.95480    1.000
    H93      H        0.92180    0.25790    0.15530    1.000
    H94      H        0.97750    0.22380    0.08930    1.000
    H95      H        0.11960    0.38770    0.17570    1.000
    H96      H        0.00660    0.35230    0.21290    1.000
    H97      H        0.85140    0.41850    0.88010    1.000
    H98      H        0.96740    0.47290    0.82710    1.000
    H99      H        0.17330    0.41980    0.96230    1.000
    H100     H        0.13990    0.30090    0.00040    1.000
    H101     H        0.29430    0.36630    0.98600    1.000
    H102     H        0.22100    0.28460    0.10780    1.000
    H103     H        0.26190    0.40710    0.05620    1.000
    H104     H        0.04280    0.38780    0.94160    1.000
    H105     H        0.84520    0.47580    0.98400    1.000
    H106     H        0.65840    0.61500    0.54420    1.000
    H107     H        0.59480    0.64000    0.61580    1.000
    H108     H        0.57820    0.42290    0.66390    1.000
    H109     H        0.52250    0.43320    0.75370    1.000
    H110     H        0.38040    0.20470    0.73190    1.000
    H111     H        0.49340    0.28050    0.65430    1.000
    H112     H        0.64860    0.76850    0.43290    1.000
    H113     H        0.53260    0.70550    0.49450    1.000
    H114     H        0.32670    0.36440    0.75350    1.000
    H115     H        0.36010    0.35970    0.83900    1.000
    H116     H        0.20570    0.21970    0.92800    1.000
    H117     H        0.27900    0.17120    0.93640    1.000
    H118     H        0.23810    0.18190    0.85480    1.000
    H119     H        0.45720    0.51560    0.65500    1.000
    H120     H        0.65480    0.67080    0.36940    1.000
    W1       W        0.75000    0.37500    0.37500    1.000
    W2       W        0.25000    0.62500    0.62500    1.000
    C1       C        0.87802    0.43822    0.39120    1.000
    C2       C        0.70091    0.28910    0.54539    1.000
    C3       C        0.18580    0.56710    0.33570    1.000
    C4       C        0.12220    0.69890    0.28310    1.000
    C5       C        0.96430    0.68570    0.38360    1.000
    C6       C        0.17050    0.47130    0.43640    1.000
    C7       C        0.12900    0.80540    0.34940    1.000
    C8       C        0.10280    0.88860    0.35220    1.000
    C9       C        0.62198    0.23078    0.43980    1.000
    C10      C        0.79909    0.25370    0.41181    1.000
    C11      C        0.31420    0.97850    0.61870    1.000
    C12      C        0.37780    0.09470    0.42330    1.000
    C13      C        0.53570    0.15210    0.27860    1.000
    C14      C        0.32950    0.89310    0.69920    1.000
    C15      C        0.37100    0.02160    0.32360    1.000
    C16      C        0.39720    0.04500    0.21420    1.000
    C17      C        0.17058    0.60880    0.76922    1.000
    C18      C        0.16551    0.45461    0.74630    1.000
    C19      C        0.09720    0.66430    0.02150    1.000
    C20      C        0.01800    0.71690    0.90530    1.000
    C21      C        0.93070    0.61640    0.84790    1.000
    C22      C        0.09230    0.56360    0.10690    1.000
    C23      C        0.84520    0.65060    0.97840    1.000
    C24      C        0.75920    0.64780    0.95500    1.000
    C25      C        0.32942    0.56020    0.56178    1.000
    C26      C        0.33449    0.58819    0.71090    1.000
    C27      C        0.40280    0.38130    0.43290    1.000
    C28      C        0.48200    0.57670    0.30110    1.000
    C29      C        0.56930    0.72140    0.31430    1.000
    C30      C        0.40770    0.30080    0.52870    1.000
    C31      C        0.65480    0.67640    0.19460    1.000
    C32      C        0.74080    0.78580    0.11140    1.000
    C33      C        0.12198    0.56178    0.60880    1.000
    C34      C        0.29909    0.71090    0.45461    1.000
    C35      C        0.81420    0.43290    0.66430    1.000
    C36      C        0.87780    0.30110    0.71690    1.000
    C37      C        0.03570    0.31430    0.61640    1.000
    C38      C        0.82950    0.52870    0.56360    1.000
    C39      C        0.87100    0.19460    0.65060    1.000
    C40      C        0.89720    0.11140    0.64780    1.000
    C41      C        0.37802    0.76922    0.56020    1.000
    C42      C        0.20091    0.74630    0.58819    1.000
    C43      C        0.68580    0.02150    0.38130    1.000
    C44      C        0.62220    0.90530    0.57670    1.000
    C45      C        0.46430    0.84790    0.72140    1.000
    C46      C        0.67050    0.10690    0.30080    1.000
    C47      C        0.62900    0.97840    0.67640    1.000
    C48      C        0.60280    0.95500    0.78580    1.000
    C49      C        0.82942    0.39120    0.23078    1.000
    C50      C        0.83449    0.54539    0.25370    1.000
    C51      C        0.90280    0.33570    0.97850    1.000
    C52      C        0.98200    0.28310    0.09470    1.000
    C53      C        0.06930    0.38360    0.15210    1.000
    C54      C        0.90770    0.43640    0.89310    1.000
    C55      C        0.15480    0.34940    0.02160    1.000
    C56      C        0.24080    0.35220    0.04500    1.000
    C57      C        0.67058    0.43980    0.43822    1.000
    C58      C        0.66551    0.41181    0.28910    1.000
    C59      C        0.59720    0.61870    0.56710    1.000
    C60      C        0.51800    0.42330    0.69890    1.000
    C61      C        0.43070    0.27860    0.68570    1.000
    C62      C        0.59230    0.69920    0.47130    1.000
    C63      C        0.34520    0.32360    0.80540    1.000
    C64      C        0.25920    0.21420    0.88860    1.000
    N1       N        0.94299    0.46926    0.40633    1.000
    N2       N        0.67695    0.24542    0.63637    1.000
    N3       N        0.13475    0.62064    0.36709    1.000
    N4       N        0.07015    0.74926    0.31491    1.000
    N5       N        0.06256    0.40121    0.50605    1.000
    N6       N        0.55701    0.15068    0.47373    1.000
    N7       N        0.82305    0.18668    0.43153    1.000
    N8       N        0.36525    0.99816    0.51411    1.000
    N9       N        0.42985    0.11494    0.32089    1.000
    N10      N        0.43744    0.93139    0.66135    1.000
    N11      N        0.12441    0.59367    0.84932    1.000
    N12      N        0.11821    0.36363    0.81332    1.000
    N13      N        0.01227    0.63291    0.00184    1.000
    N14      N        0.93583    0.68509    0.88506    1.000
    N15      N        0.09274    0.49395    0.06861    1.000
    N16      N        0.37559    0.52627    0.53074    1.000
    N17      N        0.38179    0.56847    0.75458    1.000
    N18      N        0.48773    0.48589    0.37936    1.000
    N19      N        0.56417    0.67911    0.25074    1.000
    N20      N        0.40726    0.33865    0.59879    1.000
    N21      N        0.05701    0.53074    0.59367    1.000
    N22      N        0.32305    0.75458    0.36363    1.000
    N23      N        0.86525    0.37936    0.63291    1.000
    N24      N        0.92985    0.25074    0.68509    1.000
    N25      N        0.93744    0.59879    0.49395    1.000
    N26      N        0.44299    0.84932    0.52627    1.000
    N27      N        0.17695    0.81332    0.56847    1.000
    N28      N        0.63475    0.00184    0.48589    1.000
    N29      N        0.57015    0.88506    0.67911    1.000
    N30      N        0.56256    0.06861    0.33865    1.000
    N31      N        0.87559    0.40633    0.15068    1.000
    N32      N        0.88179    0.63637    0.18668    1.000
    N33      N        0.98773    0.36709    0.99816    1.000
    N34      N        0.06417    0.31491    0.11494    1.000
    N35      N        0.90726    0.50605    0.93139    1.000
    N36      N        0.62441    0.47373    0.46926    1.000
    N37      N        0.61821    0.43153    0.24542    1.000
    N38      N        0.51227    0.51411    0.62064    1.000
    N39      N        0.43583    0.32089    0.74926    1.000
    N40      N        0.59274    0.66135    0.40121    1.000
