# CIF file generated by openbabel 3.1.0, see https://openbabel.org
data_I
_chemical_name_common 'HAJMEL_clean'
_cell_length_a 11.0215
_cell_length_b 15.1486
_cell_length_c 15.1486
_cell_angle_alpha 65.6835
_cell_angle_beta 75.9647
_cell_angle_gamma 104.035
_space_group_name_H-M_alt 'P 1'
_space_group_name_Hall 'P 1'
loop_
    _symmetry_equiv_pos_as_xyz
    x,y,z
loop_
    _atom_site_label
    _atom_site_type_symbol
    _atom_site_fract_x
    _atom_site_fract_y
    _atom_site_fract_z
    _atom_site_occupancy
    Fe1      Fe       0.50000    0.50000    0.50000    1.000
    H1       H        0.47700    0.68720    0.29180    1.000
    H2       H        0.35210    0.70720    0.26860    1.000
    H3       H        0.44520    0.67610    0.20060    1.000
    H4       H        0.03450    0.24160    0.52870    1.000
    H5       H        0.04490    0.27580    0.41350    1.000
    H6       H        0.95560    0.30940    0.48100    1.000
    H7       H        0.02660    0.71120    0.24170    1.000
    H8       H        0.15970    0.71390    0.26240    1.000
    H9       H        0.01860    0.62950    0.35050    1.000
    H10      H        0.13540    0.37540    0.14500    1.000
    H11      H        0.12790    0.33130    0.26050    1.000
    H12      H        0.26270    0.41900    0.16640    1.000
    H13      H        0.99090    0.62810    0.13940    1.000
    H14      H        0.52300    0.31280    0.70820    1.000
    H15      H        0.64790    0.29280    0.73140    1.000
    H16      H        0.55480    0.32390    0.79940    1.000
    H17      H        0.96550    0.75840    0.47130    1.000
    H18      H        0.95510    0.72420    0.58650    1.000
    H19      H        0.04440    0.69060    0.51900    1.000
    H20      H        0.97340    0.28880    0.75830    1.000
    H21      H        0.84030    0.28610    0.73760    1.000
    H22      H        0.98140    0.37050    0.64950    1.000
    H23      H        0.86460    0.62460    0.85500    1.000
    H24      H        0.87210    0.66870    0.73950    1.000
    H25      H        0.73730    0.58100    0.83360    1.000
    H26      H        0.00910    0.37190    0.86060    1.000
    C1       C        0.27609    0.34923    0.73596    1.000
    C2       C        0.31858    0.55269    0.34455    1.000
    C3       C        0.20202    0.49232    0.33986    1.000
    C4       C        0.15574    0.39388    0.42616    1.000
    C5       C        0.40590    0.66580    0.26980    1.000
    C6       C        0.03720    0.29660    0.46580    1.000
    C7       C        0.08360    0.59560    0.23590    1.000
    C8       C        0.14155    0.52265    0.26030    1.000
    C9       C        0.11940    0.47509    0.19969    1.000
    C10      C        0.07100    0.66900    0.27630    1.000
    C11      C        0.16540    0.39290    0.19220    1.000
    C12      C        0.72391    0.65077    0.26404    1.000
    C13      C        0.68142    0.44731    0.65545    1.000
    C14      C        0.79798    0.50768    0.66014    1.000
    C15      C        0.84426    0.60612    0.57384    1.000
    C16      C        0.59410    0.33420    0.73020    1.000
    C17      C        0.96280    0.70340    0.53420    1.000
    C18      C        0.91640    0.40440    0.76410    1.000
    C19      C        0.85845    0.47735    0.73970    1.000
    C20      C        0.88060    0.52491    0.80031    1.000
    C21      C        0.92900    0.33100    0.72370    1.000
    C22      C        0.83460    0.60710    0.80780    1.000
    S1       S        0.18452    0.28280    0.86063    1.000
    S2       S        0.81548    0.71720    0.13937    1.000
    N1       N        0.34325    0.39624    0.64659    1.000
    N2       N        0.34162    0.49396    0.42820    1.000
    N3       N        0.24124    0.39797    0.47615    1.000
    N4       N        0.05055    0.51523    0.14218    1.000
    N5       N        0.03197    0.58917    0.16626    1.000
    N6       N        0.65675    0.60376    0.35341    1.000
    N7       N        0.65838    0.50604    0.57180    1.000
    N8       N        0.75876    0.60203    0.52385    1.000
    N9       N        0.94945    0.48477    0.85782    1.000
    N10      N        0.96803    0.41083    0.83374    1.000
    Fe2      Fe       0.00000    0.50000    0.00000    1.000
    H27      H        0.76880    0.29180    0.02100    1.000
    H28      H        0.62070    0.26860    0.02420    1.000
    H29      H        0.64580    0.20060    0.12330    1.000
    H30      H        0.56320    0.52870    0.22970    1.000
    H31      H        0.45840    0.41350    0.31070    1.000
    H32      H        0.43660    0.48100    0.20960    1.000
    H33      H        0.26830    0.24170    0.04710    1.000
    H34      H        0.42210    0.26240    0.02370    1.000
    H35      H        0.36910    0.35050    0.02000    1.000
    H36      H        0.28040    0.14500    0.47960    1.000
    H37      H        0.38840    0.26050    0.40820    1.000
    H38      H        0.42910    0.16640    0.41460    1.000
    H39      H        0.13030    0.13940    0.23250    1.000
    H40      H        0.23120    0.70820    0.97900    1.000
    H41      H        0.37930    0.73140    0.97580    1.000
    H42      H        0.35420    0.79940    0.87670    1.000
    H43      H        0.43680    0.47130    0.77030    1.000
    H44      H        0.54160    0.58650    0.68930    1.000
    H45      H        0.56340    0.51900    0.79040    1.000
    H46      H        0.73170    0.75830    0.95290    1.000
    H47      H        0.57790    0.73760    0.97630    1.000
    H48      H        0.63090    0.64950    0.98000    1.000
    H49      H        0.71960    0.85500    0.52040    1.000
    H50      H        0.61160    0.73950    0.59180    1.000
    H51      H        0.57090    0.83360    0.58540    1.000
    H52      H        0.86970    0.86060    0.76750    1.000
    C23      C        0.01205    0.73596    0.91481    1.000
    C24      C        0.66313    0.34455    0.10276    1.000
    C25      C        0.54188    0.33986    0.16782    1.000
    C26      C        0.58190    0.42616    0.17996    1.000
    C27      C        0.67570    0.26980    0.06440    1.000
    C28      C        0.50300    0.46580    0.23760    1.000
    C29      C        0.31950    0.23590    0.16850    1.000
    C30      C        0.40185    0.26030    0.21705    1.000
    C31      C        0.31909    0.19969    0.32522    1.000
    C32      C        0.34730    0.27630    0.05470    1.000
    C33      C        0.35760    0.19220    0.41490    1.000
    C34      C        0.98795    0.26404    0.08519    1.000
    C35      C        0.33687    0.65545    0.89724    1.000
    C36      C        0.45812    0.66014    0.83218    1.000
    C37      C        0.41810    0.57384    0.82004    1.000
    C38      C        0.32430    0.73020    0.93560    1.000
    C39      C        0.49700    0.53420    0.76240    1.000
    C40      C        0.68050    0.76410    0.83150    1.000
    C41      C        0.59815    0.73970    0.78295    1.000
    C42      C        0.68091    0.80031    0.67478    1.000
    C43      C        0.65270    0.72370    0.94530    1.000
    C44      C        0.64240    0.80780    0.58510    1.000
    S3       S        0.04515    0.86063    0.85657    1.000
    S4       S        0.95485    0.13937    0.14343    1.000
    N11      N        0.98984    0.64659    0.95717    1.000
    N12      N        0.76982    0.42820    0.07784    1.000
    N13      N        0.71739    0.47615    0.12588    1.000
    N14      N        0.19273    0.14218    0.34259    1.000
    N15      N        0.19823    0.16626    0.24457    1.000
    N16      N        0.01016    0.35341    0.04283    1.000
    N17      N        0.23018    0.57180    0.92216    1.000
    N18      N        0.28261    0.52385    0.87412    1.000
    N19      N        0.80727    0.85782    0.65741    1.000
    N20      N        0.80177    0.83374    0.75543    1.000
    Fe3      Fe       0.00000    0.00000    0.50000    1.000
    H53      H        0.78980    0.02100    0.68720    1.000
    H54      H        0.64490    0.02420    0.70720    1.000
    H55      H        0.76910    0.12330    0.67610    1.000
    H56      H        0.79290    0.22970    0.24160    1.000
    H57      H        0.76910    0.31070    0.27580    1.000
    H58      H        0.64620    0.20960    0.30940    1.000
    H59      H        0.31540    0.04710    0.71120    1.000
    H60      H        0.44580    0.02370    0.71390    1.000
    H61      H        0.38910    0.02000    0.62950    1.000
    H62      H        0.76000    0.47960    0.37540    1.000
    H63      H        0.79660    0.40820    0.33130    1.000
    H64      H        0.84370    0.41460    0.41900    1.000
    H65      H        0.36280    0.23250    0.62810    1.000
    H66      H        0.21020    0.97900    0.31280    1.000
    H67      H        0.35510    0.97580    0.29280    1.000
    H68      H        0.23090    0.87670    0.32390    1.000
    H69      H        0.20710    0.77030    0.75840    1.000
    H70      H        0.23090    0.68930    0.72420    1.000
    H71      H        0.35380    0.79040    0.69060    1.000
    H72      H        0.68460    0.95290    0.28880    1.000
    H73      H        0.55420    0.97630    0.28610    1.000
    H74      H        0.61090    0.98000    0.37050    1.000
    H75      H        0.24000    0.52040    0.62460    1.000
    H76      H        0.20340    0.59180    0.66870    1.000
    H77      H        0.15630    0.58540    0.58100    1.000
    H78      H        0.63720    0.76750    0.37190    1.000
    C45      C        0.92686    0.91481    0.34923    1.000
    C46      C        0.76589    0.10276    0.55269    1.000
    C47      C        0.70970    0.16782    0.49232    1.000
    C48      C        0.76186    0.17996    0.39388    1.000
    C49      C        0.74010    0.06440    0.66580    1.000
    C50      C        0.74060    0.23760    0.29660    1.000
    C51      C        0.48800    0.16850    0.59560    1.000
    C52      C        0.61890    0.21705    0.52265    1.000
    C53      C        0.64431    0.32522    0.47509    1.000
    C54      C        0.40200    0.05470    0.66900    1.000
    C55      C        0.77250    0.41490    0.39290    1.000
    C56      C        0.07314    0.08519    0.65077    1.000
    C57      C        0.23411    0.89724    0.44731    1.000
    C58      C        0.29030    0.83218    0.50768    1.000
    C59      C        0.23814    0.82004    0.60612    1.000
    C60      C        0.25990    0.93560    0.33420    1.000
    C61      C        0.25940    0.76240    0.70340    1.000
    C62      C        0.51200    0.83150    0.40440    1.000
    C63      C        0.38110    0.78295    0.47735    1.000
    C64      C        0.35569    0.67478    0.52491    1.000
    C65      C        0.59800    0.94530    0.33100    1.000
    C66      C        0.22750    0.58510    0.60710    1.000
    S5       S        0.90172    0.85657    0.28280    1.000
    S6       S        0.09828    0.14343    0.71720    1.000
    N21      N        0.94701    0.95717    0.39624    1.000
    N22      N        0.84766    0.07784    0.49396    1.000
    N23      N        0.84327    0.12588    0.39797    1.000
    N24      N        0.53532    0.34259    0.51523    1.000
    N25      N        0.44280    0.24457    0.58917    1.000
    N26      N        0.05299    0.04283    0.60376    1.000
    N27      N        0.15234    0.92216    0.50604    1.000
    N28      N        0.15673    0.87412    0.60203    1.000
    N29      N        0.46468    0.65741    0.48477    1.000
    N30      N        0.55720    0.75543    0.41083    1.000
