# CIF file generated by openbabel 3.1.0, see https://openbabel.org
data_I
_chemical_name_common 'image0'
_cell_length_a 20.6
_cell_length_b 10.4271
_cell_length_c 29.646
_cell_angle_alpha 90
_cell_angle_beta 113.51
_cell_angle_gamma 90
_space_group_name_H-M_alt 'P 1'
_space_group_name_Hall 'P 1'
loop_
    _symmetry_equiv_pos_as_xyz
    x,y,z
loop_
    _atom_site_label
    _atom_site_type_symbol
    _atom_site_fract_x
    _atom_site_fract_y
    _atom_site_fract_z
    _atom_site_occupancy
    Co1      Co       0.16514    0.82583    0.33702    1.000
    O1       O        0.04020    0.80530    0.21925    1.000
    O2       O        0.15520    0.84410    0.26513    1.000
    O3       O        0.30220    0.01750    0.17280    1.000
    O4       O        0.24960    0.20880    0.14893    1.000
    O5       O        0.08500    0.32920    0.90100    1.000
    O6       O        0.16940    0.18750    0.90838    1.000
    O7       O        0.09040    0.66230    0.31578    1.000
    N1       N        0.05030    0.51370    0.22200    1.000
    N2       N        0.23850    0.97920    0.36280    1.000
    C1       C        0.10060    0.85060    0.22570    1.000
    C2       C        0.10730    0.91330    0.18320    1.000
    C3       C        0.17040    0.96920    0.18710    1.000
    H1       H        0.20910    0.96480    0.21720    1.000
    C4       C        0.17860    0.03120    0.14850    1.000
    C5       C        0.24920    0.08960    0.15750    1.000
    C6       C        0.12080    0.03940    0.10260    1.000
    C7       C        0.05880    0.98170    0.09880    1.000
    H2       H        0.02030    0.98290    0.06860    1.000
    C8       C        0.05120    0.92290    0.13760    1.000
    H3       H        0.00750    0.88840    0.13340    1.000
    C9       C        0.12550    0.10140    0.05890    1.000
    C10      C        0.18210    0.07160    0.04640    1.000
    H4       H        0.21840    0.01860    0.06650    1.000
    C11      C        0.18400    0.12220    0.00330    1.000
    H5       H        0.22180    0.10240    0.99500    1.000
    C12      C        0.12990    0.20210    0.97230    1.000
    C13      C        0.12890    0.24470    0.92390    1.000
    C14      C        0.07710    0.23360    0.98660    1.000
    H6       H        0.04160    0.28910    0.96710    1.000
    C15      C        0.07410    0.18550    0.02990    1.000
    H7       H        0.03760    0.21010    0.03900    1.000
    C16      C        0.07280    0.40740    0.24320    1.000
    H8       H        0.06560    0.38720    0.27140    1.000
    C17      C        0.11110    0.31250    0.22400    1.000
    H9       H        0.12530    0.23210    0.23810    1.000
    C18      C        0.12240    0.35130    0.18670    1.000
    H10      H        0.14800    0.29810    0.17470    1.000
    C19      C        0.10100    0.45600    0.16550    1.000
    H11      H        0.10690    0.47880    0.13700    1.000
    C20      C        0.06850    0.53550    0.18650    1.000
    H12      H        0.05820    0.61730    0.17300    1.000
    C21      C        0.29250    0.96950    0.40570    1.000
    H13      H        0.30050    0.89260    0.42290    1.000
    C22      C        0.33830    0.07370    0.42580    1.000
    H14      H        0.37550    0.06750    0.45650    1.000
    C23      C        0.32650    0.18560    0.39860    1.000
    H15      H        0.35830    0.25350    0.40940    1.000
    C24      C        0.26940    0.19490    0.35700    1.000
    H16      H        0.25740    0.27200    0.34000    1.000
    C25      C        0.22880    0.08840    0.34000    1.000
    H17      H        0.19100    0.09420    0.30950    1.000
    H18      H        0.08300    0.66800    0.34230    1.000
    H19      H        0.12300    0.60900    0.31600    1.000
    Co2      Co       0.66514    0.32583    0.33702    1.000
    O8       O        0.54020    0.30530    0.21925    1.000
    O9       O        0.65520    0.34410    0.26513    1.000
    O10      O        0.80220    0.51750    0.17280    1.000
    O11      O        0.74960    0.70880    0.14893    1.000
    O12      O        0.58500    0.82920    0.90100    1.000
    O13      O        0.66940    0.68750    0.90838    1.000
    O14      O        0.59040    0.16230    0.31578    1.000
    N3       N        0.55030    0.01370    0.22200    1.000
    N4       N        0.73850    0.47920    0.36280    1.000
    C26      C        0.60060    0.35060    0.22570    1.000
    C27      C        0.60730    0.41330    0.18320    1.000
    C28      C        0.67040    0.46920    0.18710    1.000
    H20      H        0.70910    0.46480    0.21720    1.000
    C29      C        0.67860    0.53120    0.14850    1.000
    C30      C        0.74920    0.58960    0.15750    1.000
    C31      C        0.62080    0.53940    0.10260    1.000
    C32      C        0.55880    0.48170    0.09880    1.000
    H21      H        0.52030    0.48290    0.06860    1.000
    C33      C        0.55120    0.42290    0.13760    1.000
    H22      H        0.50750    0.38840    0.13340    1.000
    C34      C        0.62550    0.60140    0.05890    1.000
    C35      C        0.68210    0.57160    0.04640    1.000
    H23      H        0.71840    0.51860    0.06650    1.000
    C36      C        0.68400    0.62220    0.00330    1.000
    H24      H        0.72180    0.60240    0.99500    1.000
    C37      C        0.62990    0.70210    0.97230    1.000
    C38      C        0.62890    0.74470    0.92390    1.000
    C39      C        0.57710    0.73360    0.98660    1.000
    H25      H        0.54160    0.78910    0.96710    1.000
    C40      C        0.57410    0.68550    0.02990    1.000
    H26      H        0.53760    0.71010    0.03900    1.000
    C41      C        0.57280    0.90740    0.24320    1.000
    H27      H        0.56560    0.88720    0.27140    1.000
    C42      C        0.61110    0.81250    0.22400    1.000
    H28      H        0.62530    0.73210    0.23810    1.000
    C43      C        0.62240    0.85130    0.18670    1.000
    H29      H        0.64800    0.79810    0.17470    1.000
    C44      C        0.60100    0.95600    0.16550    1.000
    H30      H        0.60690    0.97880    0.13700    1.000
    C45      C        0.56850    0.03550    0.18650    1.000
    H31      H        0.55820    0.11730    0.17300    1.000
    C46      C        0.79250    0.46950    0.40570    1.000
    H32      H        0.80050    0.39260    0.42290    1.000
    C47      C        0.83830    0.57370    0.42580    1.000
    H33      H        0.87550    0.56750    0.45650    1.000
    C48      C        0.82650    0.68560    0.39860    1.000
    H34      H        0.85830    0.75350    0.40940    1.000
    C49      C        0.76940    0.69490    0.35700    1.000
    H35      H        0.75740    0.77200    0.34000    1.000
    C50      C        0.72880    0.58840    0.34000    1.000
    H36      H        0.69100    0.59420    0.30950    1.000
    H37      H        0.58300    0.16800    0.34230    1.000
    H38      H        0.62300    0.10900    0.31600    1.000
    Co3      Co       0.83486    0.82583    0.16298    1.000
    O15      O        0.95980    0.80530    0.28075    1.000
    O16      O        0.84480    0.84410    0.23487    1.000
    O17      O        0.69780    0.01750    0.32720    1.000
    O18      O        0.75040    0.20880    0.35107    1.000
    O19      O        0.91500    0.32920    0.59900    1.000
    O20      O        0.83060    0.18750    0.59162    1.000
    O21      O        0.90960    0.66230    0.18422    1.000
    N5       N        0.94970    0.51370    0.27800    1.000
    N6       N        0.76150    0.97920    0.13720    1.000
    C51      C        0.89940    0.85060    0.27430    1.000
    C52      C        0.89270    0.91330    0.31680    1.000
    C53      C        0.82960    0.96920    0.31290    1.000
    H39      H        0.79090    0.96480    0.28280    1.000
    C54      C        0.82140    0.03120    0.35150    1.000
    C55      C        0.75080    0.08960    0.34250    1.000
    C56      C        0.87920    0.03940    0.39740    1.000
    C57      C        0.94120    0.98170    0.40120    1.000
    H40      H        0.97970    0.98290    0.43140    1.000
    C58      C        0.94880    0.92290    0.36240    1.000
    H41      H        0.99250    0.88840    0.36660    1.000
    C59      C        0.87450    0.10140    0.44110    1.000
    C60      C        0.81790    0.07160    0.45360    1.000
    H42      H        0.78160    0.01860    0.43350    1.000
    C61      C        0.81600    0.12220    0.49670    1.000
    H43      H        0.77820    0.10240    0.50500    1.000
    C62      C        0.87010    0.20210    0.52770    1.000
    C63      C        0.87110    0.24470    0.57610    1.000
    C64      C        0.92290    0.23360    0.51340    1.000
    H44      H        0.95840    0.28910    0.53290    1.000
    C65      C        0.92590    0.18550    0.47010    1.000
    H45      H        0.96240    0.21010    0.46100    1.000
    C66      C        0.92720    0.40740    0.25680    1.000
    H46      H        0.93440    0.38720    0.22860    1.000
    C67      C        0.88890    0.31250    0.27600    1.000
    H47      H        0.87470    0.23210    0.26190    1.000
    C68      C        0.87760    0.35130    0.31330    1.000
    H48      H        0.85200    0.29810    0.32530    1.000
    C69      C        0.89900    0.45600    0.33450    1.000
    H49      H        0.89310    0.47880    0.36300    1.000
    C70      C        0.93150    0.53550    0.31350    1.000
    H50      H        0.94180    0.61730    0.32700    1.000
    C71      C        0.70750    0.96950    0.09430    1.000
    H51      H        0.69950    0.89260    0.07710    1.000
    C72      C        0.66170    0.07370    0.07420    1.000
    H52      H        0.62450    0.06750    0.04350    1.000
    C73      C        0.67350    0.18560    0.10140    1.000
    H53      H        0.64170    0.25350    0.09060    1.000
    C74      C        0.73060    0.19490    0.14300    1.000
    H54      H        0.74260    0.27200    0.16000    1.000
    C75      C        0.77120    0.08840    0.16000    1.000
    H55      H        0.80900    0.09420    0.19050    1.000
    H56      H        0.91700    0.66800    0.15770    1.000
    H57      H        0.87700    0.60900    0.18400    1.000
    Co4      Co       0.33486    0.32583    0.16298    1.000
    O22      O        0.45980    0.30530    0.28075    1.000
    O23      O        0.34480    0.34410    0.23487    1.000
    O24      O        0.19780    0.51750    0.32720    1.000
    O25      O        0.25040    0.70880    0.35107    1.000
    O26      O        0.41500    0.82920    0.59900    1.000
    O27      O        0.33060    0.68750    0.59162    1.000
    O28      O        0.40960    0.16230    0.18422    1.000
    N7       N        0.44970    0.01370    0.27800    1.000
    N8       N        0.26150    0.47920    0.13720    1.000
    C76      C        0.39940    0.35060    0.27430    1.000
    C77      C        0.39270    0.41330    0.31680    1.000
    C78      C        0.32960    0.46920    0.31290    1.000
    H58      H        0.29090    0.46480    0.28280    1.000
    C79      C        0.32140    0.53120    0.35150    1.000
    C80      C        0.25080    0.58960    0.34250    1.000
    C81      C        0.37920    0.53940    0.39740    1.000
    C82      C        0.44120    0.48170    0.40120    1.000
    H59      H        0.47970    0.48290    0.43140    1.000
    C83      C        0.44880    0.42290    0.36240    1.000
    H60      H        0.49250    0.38840    0.36660    1.000
    C84      C        0.37450    0.60140    0.44110    1.000
    C85      C        0.31790    0.57160    0.45360    1.000
    H61      H        0.28160    0.51860    0.43350    1.000
    C86      C        0.31600    0.62220    0.49670    1.000
    H62      H        0.27820    0.60240    0.50500    1.000
    C87      C        0.37010    0.70210    0.52770    1.000
    C88      C        0.37110    0.74470    0.57610    1.000
    C89      C        0.42290    0.73360    0.51340    1.000
    H63      H        0.45840    0.78910    0.53290    1.000
    C90      C        0.42590    0.68550    0.47010    1.000
    H64      H        0.46240    0.71010    0.46100    1.000
    C91      C        0.42720    0.90740    0.25680    1.000
    H65      H        0.43440    0.88720    0.22860    1.000
    C92      C        0.38890    0.81250    0.27600    1.000
    H66      H        0.37470    0.73210    0.26190    1.000
    C93      C        0.37760    0.85130    0.31330    1.000
    H67      H        0.35200    0.79810    0.32530    1.000
    C94      C        0.39900    0.95600    0.33450    1.000
    H68      H        0.39310    0.97880    0.36300    1.000
    C95      C        0.43150    0.03550    0.31350    1.000
    H69      H        0.44180    0.11730    0.32700    1.000
    C96      C        0.20750    0.46950    0.09430    1.000
    H70      H        0.19950    0.39260    0.07710    1.000
    C97      C        0.16170    0.57370    0.07420    1.000
    H71      H        0.12450    0.56750    0.04350    1.000
    C98      C        0.17350    0.68560    0.10140    1.000
    H72      H        0.14170    0.75350    0.09060    1.000
    C99      C        0.23060    0.69490    0.14300    1.000
    H73      H        0.24260    0.77200    0.16000    1.000
    C100     C        0.27120    0.58840    0.16000    1.000
    H74      H        0.30900    0.59420    0.19050    1.000
    H75      H        0.41700    0.16800    0.15770    1.000
    H76      H        0.37700    0.10900    0.18400    1.000
    Co5      Co       0.83486    0.17417    0.66298    1.000
    O29      O        0.95980    0.19470    0.78075    1.000
    O30      O        0.84480    0.15590    0.73487    1.000
    O31      O        0.69780    0.98250    0.82720    1.000
    O32      O        0.75040    0.79120    0.85107    1.000
    O33      O        0.91500    0.67080    0.09900    1.000
    O34      O        0.83060    0.81250    0.09162    1.000
    O35      O        0.90960    0.33770    0.68422    1.000
    N9       N        0.94970    0.48630    0.77800    1.000
    N10      N        0.76150    0.02080    0.63720    1.000
    C101     C        0.89940    0.14940    0.77430    1.000
    C102     C        0.89270    0.08670    0.81680    1.000
    C103     C        0.82960    0.03080    0.81290    1.000
    H77      H        0.79090    0.03520    0.78280    1.000
    C104     C        0.82140    0.96880    0.85150    1.000
    C105     C        0.75080    0.91040    0.84250    1.000
    C106     C        0.87920    0.96060    0.89740    1.000
    C107     C        0.94120    0.01830    0.90120    1.000
    H78      H        0.97970    0.01710    0.93140    1.000
    C108     C        0.94880    0.07710    0.86240    1.000
    H79      H        0.99250    0.11160    0.86660    1.000
    C109     C        0.87450    0.89860    0.94110    1.000
    C110     C        0.81790    0.92840    0.95360    1.000
    H80      H        0.78160    0.98140    0.93350    1.000
    C111     C        0.81600    0.87780    0.99670    1.000
    H81      H        0.77820    0.89760    0.00500    1.000
    C112     C        0.87010    0.79790    0.02770    1.000
    C113     C        0.87110    0.75530    0.07610    1.000
    C114     C        0.92290    0.76640    0.01340    1.000
    H82      H        0.95840    0.71090    0.03290    1.000
    C115     C        0.92590    0.81450    0.97010    1.000
    H83      H        0.96240    0.78990    0.96100    1.000
    C116     C        0.92720    0.59260    0.75680    1.000
    H84      H        0.93440    0.61280    0.72860    1.000
    C117     C        0.88890    0.68750    0.77600    1.000
    H85      H        0.87470    0.76790    0.76190    1.000
    C118     C        0.87760    0.64870    0.81330    1.000
    H86      H        0.85200    0.70190    0.82530    1.000
    C119     C        0.89900    0.54400    0.83450    1.000
    H87      H        0.89310    0.52120    0.86300    1.000
    C120     C        0.93150    0.46450    0.81350    1.000
    H88      H        0.94180    0.38270    0.82700    1.000
    C121     C        0.70750    0.03050    0.59430    1.000
    H89      H        0.69950    0.10740    0.57710    1.000
    C122     C        0.66170    0.92630    0.57420    1.000
    H90      H        0.62450    0.93250    0.54350    1.000
    C123     C        0.67350    0.81440    0.60140    1.000
    H91      H        0.64170    0.74650    0.59060    1.000
    C124     C        0.73060    0.80510    0.64300    1.000
    H92      H        0.74260    0.72800    0.66000    1.000
    C125     C        0.77120    0.91160    0.66000    1.000
    H93      H        0.80900    0.90580    0.69050    1.000
    H94      H        0.91700    0.33200    0.65770    1.000
    H95      H        0.87700    0.39100    0.68400    1.000
    Co6      Co       0.33486    0.67417    0.66298    1.000
    O36      O        0.45980    0.69470    0.78075    1.000
    O37      O        0.34480    0.65590    0.73487    1.000
    O38      O        0.19780    0.48250    0.82720    1.000
    O39      O        0.25040    0.29120    0.85107    1.000
    O40      O        0.41500    0.17080    0.09900    1.000
    O41      O        0.33060    0.31250    0.09162    1.000
    O42      O        0.40960    0.83770    0.68422    1.000
    N11      N        0.44970    0.98630    0.77800    1.000
    N12      N        0.26150    0.52080    0.63720    1.000
    C126     C        0.39940    0.64940    0.77430    1.000
    C127     C        0.39270    0.58670    0.81680    1.000
    C128     C        0.32960    0.53080    0.81290    1.000
    H96      H        0.29090    0.53520    0.78280    1.000
    C129     C        0.32140    0.46880    0.85150    1.000
    C130     C        0.25080    0.41040    0.84250    1.000
    C131     C        0.37920    0.46060    0.89740    1.000
    C132     C        0.44120    0.51830    0.90120    1.000
    H97      H        0.47970    0.51710    0.93140    1.000
    C133     C        0.44880    0.57710    0.86240    1.000
    H98      H        0.49250    0.61160    0.86660    1.000
    C134     C        0.37450    0.39860    0.94110    1.000
    C135     C        0.31790    0.42840    0.95360    1.000
    H99      H        0.28160    0.48140    0.93350    1.000
    C136     C        0.31600    0.37780    0.99670    1.000
    H100     H        0.27820    0.39760    0.00500    1.000
    C137     C        0.37010    0.29790    0.02770    1.000
    C138     C        0.37110    0.25530    0.07610    1.000
    C139     C        0.42290    0.26640    0.01340    1.000
    H101     H        0.45840    0.21090    0.03290    1.000
    C140     C        0.42590    0.31450    0.97010    1.000
    H102     H        0.46240    0.28990    0.96100    1.000
    C141     C        0.42720    0.09260    0.75680    1.000
    H103     H        0.43440    0.11280    0.72860    1.000
    C142     C        0.38890    0.18750    0.77600    1.000
    H104     H        0.37470    0.26790    0.76190    1.000
    C143     C        0.37760    0.14870    0.81330    1.000
    H105     H        0.35200    0.20190    0.82530    1.000
    C144     C        0.39900    0.04400    0.83450    1.000
    H106     H        0.39310    0.02120    0.86300    1.000
    C145     C        0.43150    0.96450    0.81350    1.000
    H107     H        0.44180    0.88270    0.82700    1.000
    C146     C        0.20750    0.53050    0.59430    1.000
    H108     H        0.19950    0.60740    0.57710    1.000
    C147     C        0.16170    0.42630    0.57420    1.000
    H109     H        0.12450    0.43250    0.54350    1.000
    C148     C        0.17350    0.31440    0.60140    1.000
    H110     H        0.14170    0.24650    0.59060    1.000
    C149     C        0.23060    0.30510    0.64300    1.000
    H111     H        0.24260    0.22800    0.66000    1.000
    C150     C        0.27120    0.41160    0.66000    1.000
    H112     H        0.30900    0.40580    0.69050    1.000
    H113     H        0.41700    0.83200    0.65770    1.000
    H114     H        0.37700    0.89100    0.68400    1.000
    Co7      Co       0.16514    0.17417    0.83702    1.000
    O43      O        0.04020    0.19470    0.71925    1.000
    O44      O        0.15520    0.15590    0.76513    1.000
    O45      O        0.30220    0.98250    0.67280    1.000
    O46      O        0.24960    0.79120    0.64893    1.000
    O47      O        0.08500    0.67080    0.40100    1.000
    O48      O        0.16940    0.81250    0.40838    1.000
    O49      O        0.09040    0.33770    0.81578    1.000
    N13      N        0.05030    0.48630    0.72200    1.000
    N14      N        0.23850    0.02080    0.86280    1.000
    C151     C        0.10060    0.14940    0.72570    1.000
    C152     C        0.10730    0.08670    0.68320    1.000
    C153     C        0.17040    0.03080    0.68710    1.000
    H115     H        0.20910    0.03520    0.71720    1.000
    C154     C        0.17860    0.96880    0.64850    1.000
    C155     C        0.24920    0.91040    0.65750    1.000
    C156     C        0.12080    0.96060    0.60260    1.000
    C157     C        0.05880    0.01830    0.59880    1.000
    H116     H        0.02030    0.01710    0.56860    1.000
    C158     C        0.05120    0.07710    0.63760    1.000
    H117     H        0.00750    0.11160    0.63340    1.000
    C159     C        0.12550    0.89860    0.55890    1.000
    C160     C        0.18210    0.92840    0.54640    1.000
    H118     H        0.21840    0.98140    0.56650    1.000
    C161     C        0.18400    0.87780    0.50330    1.000
    H119     H        0.22180    0.89760    0.49500    1.000
    C162     C        0.12990    0.79790    0.47230    1.000
    C163     C        0.12890    0.75530    0.42390    1.000
    C164     C        0.07710    0.76640    0.48660    1.000
    H120     H        0.04160    0.71090    0.46710    1.000
    C165     C        0.07410    0.81450    0.52990    1.000
    H121     H        0.03760    0.78990    0.53900    1.000
    C166     C        0.07280    0.59260    0.74320    1.000
    H122     H        0.06560    0.61280    0.77140    1.000
    C167     C        0.11110    0.68750    0.72400    1.000
    H123     H        0.12530    0.76790    0.73810    1.000
    C168     C        0.12240    0.64870    0.68670    1.000
    H124     H        0.14800    0.70190    0.67470    1.000
    C169     C        0.10100    0.54400    0.66550    1.000
    H125     H        0.10690    0.52120    0.63700    1.000
    C170     C        0.06850    0.46450    0.68650    1.000
    H126     H        0.05820    0.38270    0.67300    1.000
    C171     C        0.29250    0.03050    0.90570    1.000
    H127     H        0.30050    0.10740    0.92290    1.000
    C172     C        0.33830    0.92630    0.92580    1.000
    H128     H        0.37550    0.93250    0.95650    1.000
    C173     C        0.32650    0.81440    0.89860    1.000
    H129     H        0.35830    0.74650    0.90940    1.000
    C174     C        0.26940    0.80510    0.85700    1.000
    H130     H        0.25740    0.72800    0.84000    1.000
    C175     C        0.22880    0.91160    0.84000    1.000
    H131     H        0.19100    0.90580    0.80950    1.000
    H132     H        0.08300    0.33200    0.84230    1.000
    H133     H        0.12300    0.39100    0.81600    1.000
    Co8      Co       0.66514    0.67417    0.83702    1.000
    O50      O        0.54020    0.69470    0.71925    1.000
    O51      O        0.65520    0.65590    0.76513    1.000
    O52      O        0.80220    0.48250    0.67280    1.000
    O53      O        0.74960    0.29120    0.64893    1.000
    O54      O        0.58500    0.17080    0.40100    1.000
    O55      O        0.66940    0.31250    0.40838    1.000
    O56      O        0.59040    0.83770    0.81578    1.000
    N15      N        0.55030    0.98630    0.72200    1.000
    N16      N        0.73850    0.52080    0.86280    1.000
    C176     C        0.60060    0.64940    0.72570    1.000
    C177     C        0.60730    0.58670    0.68320    1.000
    C178     C        0.67040    0.53080    0.68710    1.000
    H134     H        0.70910    0.53520    0.71720    1.000
    C179     C        0.67860    0.46880    0.64850    1.000
    C180     C        0.74920    0.41040    0.65750    1.000
    C181     C        0.62080    0.46060    0.60260    1.000
    C182     C        0.55880    0.51830    0.59880    1.000
    H135     H        0.52030    0.51710    0.56860    1.000
    C183     C        0.55120    0.57710    0.63760    1.000
    H136     H        0.50750    0.61160    0.63340    1.000
    C184     C        0.62550    0.39860    0.55890    1.000
    C185     C        0.68210    0.42840    0.54640    1.000
    H137     H        0.71840    0.48140    0.56650    1.000
    C186     C        0.68400    0.37780    0.50330    1.000
    H138     H        0.72180    0.39760    0.49500    1.000
    C187     C        0.62990    0.29790    0.47230    1.000
    C188     C        0.62890    0.25530    0.42390    1.000
    C189     C        0.57710    0.26640    0.48660    1.000
    H139     H        0.54160    0.21090    0.46710    1.000
    C190     C        0.57410    0.31450    0.52990    1.000
    H140     H        0.53760    0.28990    0.53900    1.000
    C191     C        0.57280    0.09260    0.74320    1.000
    H141     H        0.56560    0.11280    0.77140    1.000
    C192     C        0.61110    0.18750    0.72400    1.000
    H142     H        0.62530    0.26790    0.73810    1.000
    C193     C        0.62240    0.14870    0.68670    1.000
    H143     H        0.64800    0.20190    0.67470    1.000
    C194     C        0.60100    0.04400    0.66550    1.000
    H144     H        0.60690    0.02120    0.63700    1.000
    C195     C        0.56850    0.96450    0.68650    1.000
    H145     H        0.55820    0.88270    0.67300    1.000
    C196     C        0.79250    0.53050    0.90570    1.000
    H146     H        0.80050    0.60740    0.92290    1.000
    C197     C        0.83830    0.42630    0.92580    1.000
    H147     H        0.87550    0.43250    0.95650    1.000
    C198     C        0.82650    0.31440    0.89860    1.000
    H148     H        0.85830    0.24650    0.90940    1.000
    C199     C        0.76940    0.30510    0.85700    1.000
    H149     H        0.75740    0.22800    0.84000    1.000
    C200     C        0.72880    0.41160    0.84000    1.000
    H150     H        0.69100    0.40580    0.80950    1.000
    H151     H        0.58300    0.83200    0.84230    1.000
    H152     H        0.62300    0.89100    0.81600    1.000
    Co9      Co       0.00000    0.65927    0.25000    1.000
    Co10     Co       0.50000    0.15927    0.25000    1.000
    Co11     Co       0.00000    0.34073    0.75000    1.000
    Co12     Co       0.50000    0.84073    0.75000    1.000
