# CIF file generated by openbabel 3.1.0, see https://openbabel.org
data_I
_chemical_name_common 'YUVGOL_clean'
_cell_length_a 20.3067
_cell_length_b 20.3067
_cell_length_c 20.3067
_cell_angle_alpha 109.471
_cell_angle_beta 109.471
_cell_angle_gamma 109.471
_space_group_name_H-M_alt 'P 1'
_space_group_name_Hall 'P 1'
loop_
    _symmetry_equiv_pos_as_xyz
    x,y,z
loop_
    _atom_site_label
    _atom_site_type_symbol
    _atom_site_fract_x
    _atom_site_fract_y
    _atom_site_fract_z
    _atom_site_occupancy
    H1       H        0.24520    0.58870    0.46410    1.000
    H2       H        0.31060    0.53020    0.40140    1.000
    C3       C        0.26130    0.54820    0.47970    1.000
    C4       C        0.29820    0.51560    0.44400    1.000
    H5       H        0.87540    0.41130    0.65650    1.000
    H6       H        0.87120    0.46980    0.78040    1.000
    C7       C        0.93150    0.45180    0.71310    1.000
    C8       C        0.92840    0.48440    0.78260    1.000
    H9       H        0.12460    0.78110    0.53590    1.000
    H10      H        0.12880    0.90920    0.59860    1.000
    C11      C        0.06850    0.78160    0.52030    1.000
    C12      C        0.07160    0.85420    0.55600    1.000
    H13      H        0.75480    0.21890    0.34350    1.000
    H14      H        0.68940    0.09080    0.21960    1.000
    C15      C        0.73870    0.21840    0.28690    1.000
    C16      C        0.70180    0.14580    0.21740    1.000
    H17      H        0.34350    0.58870    0.12460    1.000
    H18      H        0.21960    0.53020    0.12880    1.000
    C19      C        0.28690    0.54820    0.06850    1.000
    C20      C        0.21740    0.51560    0.07160    1.000
    H21      H        0.53590    0.41130    0.75480    1.000
    H22      H        0.59860    0.46980    0.68940    1.000
    C23      C        0.52030    0.45180    0.73870    1.000
    C24      C        0.55600    0.48440    0.70180    1.000
    H25      H        0.65650    0.78110    0.24520    1.000
    H26      H        0.78040    0.90920    0.31060    1.000
    C27      C        0.71310    0.78160    0.26130    1.000
    C28      C        0.78260    0.85420    0.29820    1.000
    H29      H        0.46410    0.21890    0.87540    1.000
    H30      H        0.40140    0.09080    0.87120    1.000
    C31      C        0.47970    0.21840    0.93150    1.000
    C32      C        0.44400    0.14580    0.92840    1.000
    Zn33     Zn       0.22104    0.61052    0.61052    1.000
    Zn34     Zn       0.00000    0.38948    0.61052    1.000
    C35      C        0.31900    0.46380    0.46380    1.000
    C36      C        0.36700    0.43490    0.43490    1.000
    N37      N        0.24480    0.53230    0.53230    1.000
    C38      C        0.00000    0.53620    0.85520    1.000
    C39      C        0.00000    0.56510    0.93210    1.000
    N40      N        0.00000    0.46770    0.71250    1.000
    C41      C        0.00000    0.85520    0.53620    1.000
    C42      C        0.00000    0.93210    0.56510    1.000
    N43      N        0.00000    0.71250    0.46770    1.000
    C44      C        0.68100    0.14480    0.14480    1.000
    C45      C        0.63300    0.06790    0.06790    1.000
    N46      N        0.75520    0.28750    0.28750    1.000
    N47      N        0.15090    0.62620    0.52470    1.000
    C48      C        0.89850    0.37380    0.52470    1.000
    N49      N        0.47530    0.62620    0.10150    1.000
    C50      C        0.47530    0.37380    0.84910    1.000
    N51      N        0.38870    0.38870    0.45960    1.000
    N52      N        0.07090    0.61130    0.00000    1.000
    N53      N        0.92910    0.92910    0.54040    1.000
    N54      N        0.61130    0.07090    0.00000    1.000
    H55      H        0.46410    0.24520    0.58870    1.000
    H56      H        0.40140    0.31060    0.53020    1.000
    C57      C        0.47970    0.26130    0.54820    1.000
    C58      C        0.44400    0.29820    0.51560    1.000
    H59      H        0.65650    0.87540    0.41130    1.000
    H60      H        0.78040    0.87120    0.46980    1.000
    C61      C        0.71310    0.93150    0.45180    1.000
    C62      C        0.78260    0.92840    0.48440    1.000
    H63      H        0.53590    0.12460    0.78110    1.000
    H64      H        0.59860    0.12880    0.90920    1.000
    C65      C        0.52030    0.06850    0.78160    1.000
    C66      C        0.55600    0.07160    0.85420    1.000
    H67      H        0.34350    0.75480    0.21890    1.000
    H68      H        0.21960    0.68940    0.09080    1.000
    C69      C        0.28690    0.73870    0.21840    1.000
    C70      C        0.21740    0.70180    0.14580    1.000
    H71      H        0.12460    0.34350    0.58870    1.000
    H72      H        0.12880    0.21960    0.53020    1.000
    C73      C        0.06850    0.28690    0.54820    1.000
    C74      C        0.07160    0.21740    0.51560    1.000
    H75      H        0.75480    0.53590    0.41130    1.000
    H76      H        0.68940    0.59860    0.46980    1.000
    C77      C        0.73870    0.52030    0.45180    1.000
    C78      C        0.70180    0.55600    0.48440    1.000
    H79      H        0.24520    0.65650    0.78110    1.000
    H80      H        0.31060    0.78040    0.90920    1.000
    C81      C        0.26130    0.71310    0.78160    1.000
    C82      C        0.29820    0.78260    0.85420    1.000
    H83      H        0.87540    0.46410    0.21890    1.000
    H84      H        0.87120    0.40140    0.09080    1.000
    C85      C        0.93150    0.47970    0.21840    1.000
    C86      C        0.92840    0.44400    0.14580    1.000
    Zn87     Zn       0.61052    0.22104    0.61052    1.000
    Zn88     Zn       0.61052    0.00000    0.38948    1.000
    C89      C        0.46380    0.31900    0.46380    1.000
    C90      C        0.43490    0.36700    0.43490    1.000
    N91      N        0.53230    0.24480    0.53230    1.000
    C92      C        0.85520    0.00000    0.53620    1.000
    C93      C        0.93210    0.00000    0.56510    1.000
    N94      N        0.71250    0.00000    0.46770    1.000
    C95      C        0.53620    0.00000    0.85520    1.000
    C96      C        0.56510    0.00000    0.93210    1.000
    N97      N        0.46770    0.00000    0.71250    1.000
    C98      C        0.14480    0.68100    0.14480    1.000
    C99      C        0.06790    0.63300    0.06790    1.000
    N100     N        0.28750    0.75520    0.28750    1.000
    N101     N        0.52470    0.15090    0.62620    1.000
    C102     C        0.52470    0.89850    0.37380    1.000
    N103     N        0.10150    0.47530    0.62620    1.000
    C104     C        0.84910    0.47530    0.37380    1.000
    N105     N        0.45960    0.38870    0.38870    1.000
    N106     N        0.00000    0.07090    0.61130    1.000
    N107     N        0.54040    0.92910    0.92910    1.000
    N108     N        0.00000    0.61130    0.07090    1.000
    H109     H        0.58870    0.46410    0.24520    1.000
    H110     H        0.53020    0.40140    0.31060    1.000
    C111     C        0.54820    0.47970    0.26130    1.000
    C112     C        0.51560    0.44400    0.29820    1.000
    H113     H        0.41130    0.65650    0.87540    1.000
    H114     H        0.46980    0.78040    0.87120    1.000
    C115     C        0.45180    0.71310    0.93150    1.000
    C116     C        0.48440    0.78260    0.92840    1.000
    H117     H        0.78110    0.53590    0.12460    1.000
    H118     H        0.90920    0.59860    0.12880    1.000
    C119     C        0.78160    0.52030    0.06850    1.000
    C120     C        0.85420    0.55600    0.07160    1.000
    H121     H        0.21890    0.34350    0.75480    1.000
    H122     H        0.09080    0.21960    0.68940    1.000
    C123     C        0.21840    0.28690    0.73870    1.000
    C124     C        0.14580    0.21740    0.70180    1.000
    H125     H        0.58870    0.12460    0.34350    1.000
    H126     H        0.53020    0.12880    0.21960    1.000
    C127     C        0.54820    0.06850    0.28690    1.000
    C128     C        0.51560    0.07160    0.21740    1.000
    H129     H        0.41130    0.75480    0.53590    1.000
    H130     H        0.46980    0.68940    0.59860    1.000
    C131     C        0.45180    0.73870    0.52030    1.000
    C132     C        0.48440    0.70180    0.55600    1.000
    H133     H        0.78110    0.24520    0.65650    1.000
    H134     H        0.90920    0.31060    0.78040    1.000
    C135     C        0.78160    0.26130    0.71310    1.000
    C136     C        0.85420    0.29820    0.78260    1.000
    H137     H        0.21890    0.87540    0.46410    1.000
    H138     H        0.09080    0.87120    0.40140    1.000
    C139     C        0.21840    0.93150    0.47970    1.000
    C140     C        0.14580    0.92840    0.44400    1.000
    Zn141    Zn       0.61052    0.61052    0.22104    1.000
    Zn142    Zn       0.38948    0.61052    0.00000    1.000
    C143     C        0.46380    0.46380    0.31900    1.000
    C144     C        0.43490    0.43490    0.36700    1.000
    N145     N        0.53230    0.53230    0.24480    1.000
    C146     C        0.53620    0.85520    0.00000    1.000
    C147     C        0.56510    0.93210    0.00000    1.000
    N148     N        0.46770    0.71250    0.00000    1.000
    C149     C        0.85520    0.53620    0.00000    1.000
    C150     C        0.93210    0.56510    0.00000    1.000
    N151     N        0.71250    0.46770    0.00000    1.000
    C152     C        0.14480    0.14480    0.68100    1.000
    C153     C        0.06790    0.06790    0.63300    1.000
    N154     N        0.28750    0.28750    0.75520    1.000
    N155     N        0.62620    0.52470    0.15090    1.000
    C156     C        0.37380    0.52470    0.89850    1.000
    N157     N        0.62620    0.10150    0.47530    1.000
    C158     C        0.37380    0.84910    0.47530    1.000
    N159     N        0.38870    0.45960    0.38870    1.000
    N160     N        0.61130    0.00000    0.07090    1.000
    N161     N        0.92910    0.54040    0.92910    1.000
    N162     N        0.07090    0.00000    0.61130    1.000
    H163     H        0.75480    0.41130    0.53590    1.000
    H164     H        0.68940    0.46980    0.59860    1.000
    C165     C        0.73870    0.45180    0.52030    1.000
    C166     C        0.70180    0.48440    0.55600    1.000
    H167     H        0.12460    0.58870    0.34350    1.000
    H168     H        0.12880    0.53020    0.21960    1.000
    C169     C        0.06850    0.54820    0.28690    1.000
    C170     C        0.07160    0.51560    0.21740    1.000
    H171     H        0.87540    0.21890    0.46410    1.000
    H172     H        0.87120    0.09080    0.40140    1.000
    C173     C        0.93150    0.21840    0.47970    1.000
    C174     C        0.92840    0.14580    0.44400    1.000
    H175     H        0.24520    0.78110    0.65650    1.000
    H176     H        0.31060    0.90920    0.78040    1.000
    C177     C        0.26130    0.78160    0.71310    1.000
    C178     C        0.29820    0.85420    0.78260    1.000
    H179     H        0.65650    0.41130    0.87540    1.000
    H180     H        0.78040    0.46980    0.87120    1.000
    C181     C        0.71310    0.45180    0.93150    1.000
    C182     C        0.78260    0.48440    0.92840    1.000
    H183     H        0.46410    0.58870    0.24520    1.000
    H184     H        0.40140    0.53020    0.31060    1.000
    C185     C        0.47970    0.54820    0.26130    1.000
    C186     C        0.44400    0.51560    0.29820    1.000
    H187     H        0.34350    0.21890    0.75480    1.000
    H188     H        0.21960    0.09080    0.68940    1.000
    C189     C        0.28690    0.21840    0.73870    1.000
    C190     C        0.21740    0.14580    0.70180    1.000
    H191     H        0.53590    0.78110    0.12460    1.000
    H192     H        0.59860    0.90920    0.12880    1.000
    C193     C        0.52030    0.78160    0.06850    1.000
    C194     C        0.55600    0.85420    0.07160    1.000
    Zn195    Zn       0.77896    0.38948    0.38948    1.000
    Zn196    Zn       0.00000    0.61052    0.38948    1.000
    C197     C        0.68100    0.53620    0.53620    1.000
    C198     C        0.63300    0.56510    0.56510    1.000
    N199     N        0.75520    0.46770    0.46770    1.000
    C200     C        0.00000    0.46380    0.14480    1.000
    C201     C        0.00000    0.43490    0.06790    1.000
    N202     N        0.00000    0.53230    0.28750    1.000
    C203     C        0.00000    0.14480    0.46380    1.000
    C204     C        0.00000    0.06790    0.43490    1.000
    N205     N        0.00000    0.28750    0.53230    1.000
    C206     C        0.31900    0.85520    0.85520    1.000
    C207     C        0.36700    0.93210    0.93210    1.000
    N208     N        0.24480    0.71250    0.71250    1.000
    N209     N        0.84910    0.37380    0.47530    1.000
    C210     C        0.10150    0.62620    0.47530    1.000
    N211     N        0.52470    0.37380    0.89850    1.000
    C212     C        0.52470    0.62620    0.15090    1.000
    N213     N        0.61130    0.61130    0.54040    1.000
    N214     N        0.92910    0.38870    0.00000    1.000
    N215     N        0.07090    0.07090    0.45960    1.000
    N216     N        0.38870    0.92910    0.00000    1.000
    H217     H        0.53590    0.75480    0.41130    1.000
    H218     H        0.59860    0.68940    0.46980    1.000
    C219     C        0.52030    0.73870    0.45180    1.000
    C220     C        0.55600    0.70180    0.48440    1.000
    H221     H        0.34350    0.12460    0.58870    1.000
    H222     H        0.21960    0.12880    0.53020    1.000
    C223     C        0.28690    0.06850    0.54820    1.000
    C224     C        0.21740    0.07160    0.51560    1.000
    H225     H        0.46410    0.87540    0.21890    1.000
    H226     H        0.40140    0.87120    0.09080    1.000
    C227     C        0.47970    0.93150    0.21840    1.000
    C228     C        0.44400    0.92840    0.14580    1.000
    H229     H        0.65650    0.24520    0.78110    1.000
    H230     H        0.78040    0.31060    0.90920    1.000
    C231     C        0.71310    0.26130    0.78160    1.000
    C232     C        0.78260    0.29820    0.85420    1.000
    H233     H        0.87540    0.65650    0.41130    1.000
    H234     H        0.87120    0.78040    0.46980    1.000
    C235     C        0.93150    0.71310    0.45180    1.000
    C236     C        0.92840    0.78260    0.48440    1.000
    H237     H        0.24520    0.46410    0.58870    1.000
    H238     H        0.31060    0.40140    0.53020    1.000
    C239     C        0.26130    0.47970    0.54820    1.000
    C240     C        0.29820    0.44400    0.51560    1.000
    H241     H        0.75480    0.34350    0.21890    1.000
    H242     H        0.68940    0.21960    0.09080    1.000
    C243     C        0.73870    0.28690    0.21840    1.000
    C244     C        0.70180    0.21740    0.14580    1.000
    H245     H        0.12460    0.53590    0.78110    1.000
    H246     H        0.12880    0.59860    0.90920    1.000
    C247     C        0.06850    0.52030    0.78160    1.000
    C248     C        0.07160    0.55600    0.85420    1.000
    Zn249    Zn       0.38948    0.77896    0.38948    1.000
    Zn250    Zn       0.38948    0.00000    0.61052    1.000
    C251     C        0.53620    0.68100    0.53620    1.000
    C252     C        0.56510    0.63300    0.56510    1.000
    N253     N        0.46770    0.75520    0.46770    1.000
    C254     C        0.14480    0.00000    0.46380    1.000
    C255     C        0.06790    0.00000    0.43490    1.000
    N256     N        0.28750    0.00000    0.53230    1.000
    C257     C        0.46380    0.00000    0.14480    1.000
    C258     C        0.43490    0.00000    0.06790    1.000
    N259     N        0.53230    0.00000    0.28750    1.000
    C260     C        0.85520    0.31900    0.85520    1.000
    C261     C        0.93210    0.36700    0.93210    1.000
    N262     N        0.71250    0.24480    0.71250    1.000
    N263     N        0.47530    0.84910    0.37380    1.000
    C264     C        0.47530    0.10150    0.62620    1.000
    N265     N        0.89850    0.52470    0.37380    1.000
    C266     C        0.15090    0.52470    0.62620    1.000
    N267     N        0.54040    0.61130    0.61130    1.000
    N268     N        0.00000    0.92910    0.38870    1.000
    N269     N        0.45960    0.07090    0.07090    1.000
    N270     N        0.00000    0.38870    0.92910    1.000
    H271     H        0.41130    0.53590    0.75480    1.000
    H272     H        0.46980    0.59860    0.68940    1.000
    C273     C        0.45180    0.52030    0.73870    1.000
    C274     C        0.48440    0.55600    0.70180    1.000
    H275     H        0.58870    0.34350    0.12460    1.000
    H276     H        0.53020    0.21960    0.12880    1.000
    C277     C        0.54820    0.28690    0.06850    1.000
    C278     C        0.51560    0.21740    0.07160    1.000
    H279     H        0.21890    0.46410    0.87540    1.000
    H280     H        0.09080    0.40140    0.87120    1.000
    C281     C        0.21840    0.47970    0.93150    1.000
    C282     C        0.14580    0.44400    0.92840    1.000
    H283     H        0.78110    0.65650    0.24520    1.000
    H284     H        0.90920    0.78040    0.31060    1.000
    C285     C        0.78160    0.71310    0.26130    1.000
    C286     C        0.85420    0.78260    0.29820    1.000
    H287     H        0.41130    0.87540    0.65650    1.000
    H288     H        0.46980    0.87120    0.78040    1.000
    C289     C        0.45180    0.93150    0.71310    1.000
    C290     C        0.48440    0.92840    0.78260    1.000
    H291     H        0.58870    0.24520    0.46410    1.000
    H292     H        0.53020    0.31060    0.40140    1.000
    C293     C        0.54820    0.26130    0.47970    1.000
    C294     C        0.51560    0.29820    0.44400    1.000
    H295     H        0.21890    0.75480    0.34350    1.000
    H296     H        0.09080    0.68940    0.21960    1.000
    C297     C        0.21840    0.73870    0.28690    1.000
    C298     C        0.14580    0.70180    0.21740    1.000
    H299     H        0.78110    0.12460    0.53590    1.000
    H300     H        0.90920    0.12880    0.59860    1.000
    C301     C        0.78160    0.06850    0.52030    1.000
    C302     C        0.85420    0.07160    0.55600    1.000
    Zn303    Zn       0.38948    0.38948    0.77896    1.000
    Zn304    Zn       0.61052    0.38948    0.00000    1.000
    C305     C        0.53620    0.53620    0.68100    1.000
    C306     C        0.56510    0.56510    0.63300    1.000
    N307     N        0.46770    0.46770    0.75520    1.000
    C308     C        0.46380    0.14480    0.00000    1.000
    C309     C        0.43490    0.06790    0.00000    1.000
    N310     N        0.53230    0.28750    0.00000    1.000
    C311     C        0.14480    0.46380    0.00000    1.000
    C312     C        0.06790    0.43490    0.00000    1.000
    N313     N        0.28750    0.53230    0.00000    1.000
    C314     C        0.85520    0.85520    0.31900    1.000
    C315     C        0.93210    0.93210    0.36700    1.000
    N316     N        0.71250    0.71250    0.24480    1.000
    N317     N        0.37380    0.47530    0.84910    1.000
    C318     C        0.62620    0.47530    0.10150    1.000
    N319     N        0.37380    0.89850    0.52470    1.000
    C320     C        0.62620    0.15090    0.52470    1.000
    N321     N        0.61130    0.54040    0.61130    1.000
    N322     N        0.38870    0.00000    0.92910    1.000
    N323     N        0.07090    0.45960    0.07090    1.000
    N324     N        0.92910    0.00000    0.38870    1.000
