# CIF file generated by openbabel 3.1.0, see https://openbabel.org
data_I
_chemical_name_common 'image0'
_cell_length_a 8.4408
_cell_length_b 9.263
_cell_length_c 13.843
_cell_angle_alpha 81.119
_cell_angle_beta 83.643
_cell_angle_gamma 72.647
_space_group_name_H-M_alt 'P 1'
_space_group_name_Hall 'P 1'
loop_
    _symmetry_equiv_pos_as_xyz
    x,y,z
loop_
    _atom_site_label
    _atom_site_type_symbol
    _atom_site_fract_x
    _atom_site_fract_y
    _atom_site_fract_z
    _atom_site_occupancy
    Zn1      Zn       0.74556    0.49370    0.47314    1.000
    Zn2      Zn       0.70629    0.08149    0.98055    1.000
    Zn3      Zn       0.36247    0.11199    0.37406    1.000
    P1       P        0.90455    0.56646    0.64875    1.000
    P2       P        0.41496    0.13549    0.13603    1.000
    P3       P        0.98318    0.79185    0.07714    1.000
    P4       P        0.58102    0.21723    0.52006    1.000
    O1       O        0.81340    0.47670    0.60320    1.000
    O2       O        0.09210    0.49790    0.63540    1.000
    O3       O        0.71030    0.29650    0.47005    1.000
    O4       O        0.43480    0.33000    0.56970    1.000
    O5       O        0.52780    0.20160    0.06043    1.000
    O6       O        0.83300    0.93020    0.07650    1.000
    O7       O        0.40270    0.98180    0.11617    1.000
    O8       O        0.13990    0.82110    0.10273    1.000
    O9       O        0.53060    0.14380    0.44218    1.000
    O10      O        0.84930    0.73620    0.61290    1.000
    O11      O        0.66510    0.09150    0.60147    1.000
    O12      O        0.46990    0.12420    0.23929    1.000
    O13      O        0.85700    0.54360    0.76211    1.000
    H1       H        0.92810    0.47170    0.78850    1.000
    O14      O        0.23170    0.24690    0.13010    1.000
    H2       H        0.21710    0.31060    0.16770    1.000
    O15      O        0.94130    0.66690    0.15120    1.000
    O16      O        0.02330    0.73960    0.97200    1.000
    H3       H        0.93610    0.74870    0.94750    1.000
    Zn4      Zn       0.25444    0.50630    0.52686    1.000
    Zn5      Zn       0.29371    0.91851    0.01945    1.000
    Zn6      Zn       0.63753    0.88801    0.62594    1.000
    P5       P        0.09545    0.43354    0.35125    1.000
    P6       P        0.58504    0.86451    0.86397    1.000
    P7       P        0.01682    0.20815    0.92286    1.000
    P8       P        0.41898    0.78277    0.47994    1.000
    O17      O        0.18660    0.52330    0.39680    1.000
    O18      O        0.90790    0.50210    0.36460    1.000
    O19      O        0.28970    0.70350    0.52995    1.000
    O20      O        0.56520    0.67000    0.43030    1.000
    O21      O        0.47220    0.79840    0.93957    1.000
    O22      O        0.16700    0.06980    0.92350    1.000
    O23      O        0.59730    0.01820    0.88383    1.000
    O24      O        0.86010    0.17890    0.89727    1.000
    O25      O        0.46940    0.85620    0.55782    1.000
    O26      O        0.15070    0.26380    0.38710    1.000
    O27      O        0.33490    0.90850    0.39853    1.000
    O28      O        0.53010    0.87580    0.76071    1.000
    O29      O        0.14300    0.45640    0.23789    1.000
    H4       H        0.07190    0.52830    0.21150    1.000
    O30      O        0.76830    0.75310    0.86990    1.000
    H5       H        0.78290    0.68940    0.83230    1.000
    O31      O        0.05870    0.33310    0.84880    1.000
    O32      O        0.97670    0.26040    0.02800    1.000
    H6       H        0.06390    0.25130    0.05250    1.000
