# CIF file generated by openbabel 3.1.0, see https://openbabel.org
data_I
_chemical_name_common 'YURKIG_clean'
_cell_length_a 14.9351
_cell_length_b 19.0332
_cell_length_c 30.3411
_cell_angle_alpha 96.8239
_cell_angle_beta 90
_cell_angle_gamma 113.1
_space_group_name_H-M_alt 'P 1'
_space_group_name_Hall 'P 1'
loop_
    _symmetry_equiv_pos_as_xyz
    x,y,z
loop_
    _atom_site_label
    _atom_site_type_symbol
    _atom_site_fract_x
    _atom_site_fract_y
    _atom_site_fract_z
    _atom_site_occupancy
    Pr1      Pr       0.37576    0.82961    0.15835    1.000
    Pr2      Pr       0.37848    0.58642    0.64450    1.000
    Pr3      Pr       0.45385    0.82961    0.65835    1.000
    Pr4      Pr       0.20794    0.58642    0.14450    1.000
    H1       H        0.36820    0.06820    0.23640    1.000
    H2       H        0.23710    0.33580    0.10390    1.000
    H3       H        0.96250    0.62640    0.14570    1.000
    H4       H        0.32920    0.05840    0.10330    1.000
    H5       H        0.30260    0.29860    0.24840    1.000
    H6       H        0.33920    0.17960    0.24830    1.000
    H7       H        0.23670    0.59980    0.51460    1.000
    H8       H        0.39660    0.81060    0.31140    1.000
    H9       H        0.45510    0.80560    0.50540    1.000
    H10      H        0.26470    0.40240    0.23680    1.000
    H11      H        0.17990    0.59260    0.44240    1.000
    H12      H        0.54150    0.57500    0.13850    1.000
    H13      H        0.16230    0.61020    0.28680    1.000
    H14      H        0.15370    0.59620    0.36180    1.000
    H15      H        0.57850    0.79960    0.15510    1.000
    H16      H        0.74600    0.83820    0.15610    1.000
    H17      H        0.07580    0.85940    0.16250    1.000
    H18      H        0.92140    0.85940    0.16180    1.000
    H19      H        0.70000    0.06820    0.73640    1.000
    H20      H        0.09870    0.33580    0.60390    1.000
    H21      H        0.66390    0.62640    0.64570    1.000
    H22      H        0.72920    0.05840    0.60330    1.000
    H23      H        0.99600    0.29860    0.74840    1.000
    H24      H        0.84040    0.17960    0.74830    1.000
    H25      H        0.36310    0.59980    0.01460    1.000
    H26      H        0.41400    0.81060    0.81140    1.000
    H27      H        0.35050    0.80560    0.00540    1.000
    H28      H        0.13770    0.40240    0.73680    1.000
    H29      H        0.41270    0.59260    0.94240    1.000
    H30      H        0.03350    0.57500    0.63850    1.000
    H31      H        0.44790    0.61020    0.78680    1.000
    H32      H        0.44250    0.59620    0.86180    1.000
    H33      H        0.22110    0.79960    0.65510    1.000
    H34      H        0.09220    0.83820    0.65610    1.000
    H35      H        0.78360    0.85940    0.66250    1.000
    H36      H        0.93800    0.85940    0.66180    1.000
    C1       C        0.35426    0.08872    0.21221    1.000
    C2       C        0.36897    0.97894    0.16237    1.000
    C3       C        0.25062    0.32904    0.13266    1.000
    C4       C        0.27514    0.69248    0.38105    1.000
    C5       C        0.28960    0.69080    0.42914    1.000
    C6       C        0.31583    0.18606    0.18316    1.000
    C7       C        0.95522    0.67304    0.14882    1.000
    C8       C        0.35122    0.05144    0.16905    1.000
    C9       C        0.54239    0.68298    0.14795    1.000
    C10      C        0.33100    0.08200    0.13213    1.000
    C11      C        0.35256    0.70192    0.51720    1.000
    C12      C        0.27988    0.71136    0.29139    1.000
    C13      C        0.28108    0.71696    0.24240    1.000
    C14      C        0.21971    0.44602    0.16273    1.000
    C15      C        0.38812    0.70184    0.56315    1.000
    C16      C        0.29011    0.30622    0.21972    1.000
    C17      C        0.31401    0.14862    0.14040    1.000
    C18      C        0.13834    0.74768    0.15264    1.000
    C19      C        0.03536    0.74212    0.15354    1.000
    C20      C        0.33684    0.15548    0.21953    1.000
    C21      C        0.26988    0.63896    0.49775    1.000
    C22      C        0.34927    0.76714    0.32097    1.000
    C23      C        0.24650    0.37960    0.16950    1.000
    C24      C        0.37111    0.75362    0.44848    1.000
    C25      C        0.86253    0.67506    0.14882    1.000
    C26      C        0.68268    0.65356    0.14475    1.000
    C27      C        0.43467    0.66026    0.14909    1.000
    C28      C        0.34576    0.75592    0.36532    1.000
    C29      C        0.40272    0.76184    0.49273    1.000
    C30      C        0.26688    0.36816    0.21266    1.000
    C31      C        0.23631    0.63342    0.45431    1.000
    C32      C        0.29460    0.25580    0.18344    1.000
    C33      C        0.27527    0.26874    0.14061    1.000
    C34      C        0.58110    0.62720    0.14290    1.000
    C35      C        0.20824    0.64748    0.30709    1.000
    C36      C        0.74469    0.73118    0.15081    1.000
    C37      C        0.20331    0.63782    0.35180    1.000
    C38      C        0.84957    0.74414    0.15331    1.000
    C39      C        0.60525    0.76270    0.15260    1.000
    C40      C        0.70556    0.78612    0.15360    1.000
    C41      C        0.02174    0.81288    0.15880    1.000
    C42      C        0.92957    0.81314    0.15850    1.000
    C43      C        0.73446    0.08872    0.71221    1.000
    C44      C        0.60997    0.97894    0.66237    1.000
    C45      C        0.07842    0.32904    0.63266    1.000
    C46      C        0.41734    0.69248    0.88105    1.000
    C47      C        0.40120    0.69080    0.92914    1.000
    C48      C        0.87023    0.18606    0.68316    1.000
    C49      C        0.71782    0.67304    0.64882    1.000
    C50      C        0.70022    0.05144    0.66905    1.000
    C51      C        0.14059    0.68298    0.64795    1.000
    C52      C        0.75100    0.08200    0.63213    1.000
    C53      C        0.34936    0.70192    0.01720    1.000
    C54      C        0.43148    0.71136    0.79139    1.000
    C55      C        0.43588    0.71696    0.74240    1.000
    C56      C        0.22631    0.44602    0.66273    1.000
    C57      C        0.31372    0.70184    0.06315    1.000
    C58      C        0.01611    0.30622    0.71972    1.000
    C59      C        0.83461    0.14862    0.64040    1.000
    C60      C        0.60934    0.74768    0.65264    1.000
    C61      C        0.70676    0.74212    0.65354    1.000
    C62      C        0.81864    0.15548    0.71953    1.000
    C63      C        0.36908    0.63896    0.99775    1.000
    C64      C        0.41787    0.76714    0.82097    1.000
    C65      C        0.13310    0.37960    0.66950    1.000
    C66      C        0.38251    0.75362    0.94848    1.000
    C67      C        0.81253    0.67506    0.64882    1.000
    C68      C        0.97088    0.65356    0.64475    1.000
    C69      C        0.22559    0.66026    0.64909    1.000
    C70      C        0.41016    0.75592    0.86532    1.000
    C71      C        0.35912    0.76184    0.99273    1.000
    C72      C        0.10128    0.36816    0.71266    1.000
    C73      C        0.39711    0.63342    0.95431    1.000
    C74      C        0.96120    0.25580    0.68344    1.000
    C75      C        0.99347    0.26874    0.64061    1.000
    C76      C        0.04610    0.62720    0.64290    1.000
    C77      C        0.43924    0.64748    0.80709    1.000
    C78      C        0.98649    0.73118    0.65081    1.000
    C79      C        0.43451    0.63782    0.85180    1.000
    C80      C        0.89457    0.74414    0.65331    1.000
    C81      C        0.15745    0.76270    0.65260    1.000
    C82      C        0.08056    0.78612    0.65360    1.000
    C83      C        0.79114    0.81288    0.65880    1.000
    C84      C        0.88357    0.81314    0.65850    1.000
    S1       S        0.28365    0.19678    0.09991    1.000
    S2       S        0.74928    0.59476    0.14411    1.000
    S3       S        0.43122    0.81478    0.40873    1.000
    S4       S        0.91313    0.19678    0.59991    1.000
    S5       S        0.84548    0.59476    0.64411    1.000
    S6       S        0.38356    0.81478    0.90873    1.000
    O1       O        0.39360    0.95688    0.19663    1.000
    O2       O        0.32912    0.78124    0.22997    1.000
    O3       O        0.44628    0.76516    0.58372    1.000
    O4       O        0.35739    0.63738    0.57717    1.000
    O5       O        0.35817    0.94190    0.12424    1.000
    O6       O        0.19869    0.45276    0.12314    1.000
    O7       O        0.23376    0.65512    0.21763    1.000
    O8       O        0.40153    0.71238    0.15460    1.000
    O9       O        0.22033    0.49226    0.19543    1.000
    O10      O        0.36288    0.22756    0.07152    1.000
    O11      O        0.20555    0.81222    0.16304    1.000
    O12      O        0.37948    0.59042    0.14585    1.000
    O13      O        0.14882    0.68564    0.14052    1.000
    O14      O        0.19033    0.15006    0.07854    1.000
    O15      O        0.73736    0.54732    0.10227    1.000
    O16      O        0.52479    0.81318    0.40140    1.000
    O17      O        0.42759    0.88938    0.41807    1.000
    O18      O        0.73337    0.55674    0.18312    1.000
    O19      O        0.56328    0.95688    0.69663    1.000
    O20      O        0.45212    0.78124    0.72997    1.000
    O21      O        0.31888    0.76516    0.08372    1.000
    O22      O        0.27999    0.63738    0.07717    1.000
    O23      O        0.58373    0.94190    0.62424    1.000
    O24      O        0.25407    0.45276    0.62314    1.000
    O25      O        0.42136    0.65512    0.71763    1.000
    O26      O        0.31085    0.71238    0.65460    1.000
    O27      O        0.27193    0.49226    0.69543    1.000
    O28      O        0.86468    0.22756    0.57152    1.000
    O29      O        0.60667    0.81222    0.66304    1.000
    O30      O        0.21094    0.59042    0.64585    1.000
    O31      O        0.53682    0.68564    0.64052    1.000
    O32      O        0.95973    0.15006    0.57854    1.000
    O33      O        0.80996    0.54732    0.60227    1.000
    O34      O        0.28839    0.81318    0.90140    1.000
    O35      O        0.46179    0.88938    0.91807    1.000
    O36      O        0.82337    0.55674    0.68312    1.000
    Pr5      Pr       0.54615    0.17039    0.34165    1.000
    Pr6      Pr       0.79206    0.41358    0.85550    1.000
    Pr7      Pr       0.62424    0.17039    0.84165    1.000
    Pr8      Pr       0.62152    0.41358    0.35550    1.000
    H37      H        0.30000    0.93180    0.26360    1.000
    H38      H        0.90130    0.66420    0.39610    1.000
    H39      H        0.33610    0.37360    0.35430    1.000
    H40      H        0.27080    0.94160    0.39670    1.000
    H41      H        0.00400    0.70140    0.25160    1.000
    H42      H        0.15960    0.82040    0.25170    1.000
    H43      H        0.63690    0.40020    0.98540    1.000
    H44      H        0.58600    0.18940    0.18860    1.000
    H45      H        0.64950    0.19440    0.99460    1.000
    H46      H        0.86230    0.59760    0.26320    1.000
    H47      H        0.58730    0.40740    0.05760    1.000
    H48      H        0.96650    0.42500    0.36150    1.000
    H49      H        0.55210    0.38980    0.21320    1.000
    H50      H        0.55750    0.40380    0.13820    1.000
    H51      H        0.77890    0.20040    0.34490    1.000
    H52      H        0.90780    0.16180    0.34390    1.000
    H53      H        0.21640    0.14060    0.33750    1.000
    H54      H        0.06200    0.14060    0.33820    1.000
    H55      H        0.63180    0.93180    0.76360    1.000
    H56      H        0.76290    0.66420    0.89610    1.000
    H57      H        0.03750    0.37360    0.85430    1.000
    H58      H        0.67080    0.94160    0.89670    1.000
    H59      H        0.69740    0.70140    0.75160    1.000
    H60      H        0.66080    0.82040    0.75170    1.000
    H61      H        0.76330    0.40020    0.48540    1.000
    H62      H        0.60340    0.18940    0.68860    1.000
    H63      H        0.54490    0.19440    0.49460    1.000
    H64      H        0.73530    0.59760    0.76320    1.000
    H65      H        0.82010    0.40740    0.55760    1.000
    H66      H        0.45850    0.42500    0.86150    1.000
    H67      H        0.83770    0.38980    0.71320    1.000
    H68      H        0.84630    0.40380    0.63820    1.000
    H69      H        0.42150    0.20040    0.84490    1.000
    H70      H        0.25400    0.16180    0.84390    1.000
    H71      H        0.92420    0.14060    0.83750    1.000
    H72      H        0.07860    0.14060    0.83820    1.000
    C85      C        0.26554    0.91128    0.28779    1.000
    C86      C        0.39003    0.02106    0.33763    1.000
    C87      C        0.92158    0.67096    0.36734    1.000
    C88      C        0.58266    0.30752    0.11895    1.000
    C89      C        0.59880    0.30920    0.07086    1.000
    C90      C        0.12977    0.81394    0.31684    1.000
    C91      C        0.28218    0.32696    0.35118    1.000
    C92      C        0.29978    0.94856    0.33095    1.000
    C93      C        0.85941    0.31702    0.35205    1.000
    C94      C        0.24900    0.91800    0.36787    1.000
    C95      C        0.65064    0.29808    0.98280    1.000
    C96      C        0.56852    0.28864    0.20861    1.000
    C97      C        0.56412    0.28304    0.25760    1.000
    C98      C        0.77369    0.55398    0.33727    1.000
    C99      C        0.68628    0.29816    0.93685    1.000
    C100     C        0.98389    0.69378    0.28028    1.000
    C101     C        0.16539    0.85138    0.35960    1.000
    C102     C        0.39066    0.25232    0.34736    1.000
    C103     C        0.29324    0.25788    0.34646    1.000
    C104     C        0.18136    0.84452    0.28047    1.000
    C105     C        0.63092    0.36104    0.00225    1.000
    C106     C        0.58213    0.23286    0.17903    1.000
    C107     C        0.86690    0.62040    0.33050    1.000
    C108     C        0.61749    0.24638    0.05152    1.000
    C109     C        0.18747    0.32494    0.35118    1.000
    C110     C        0.02912    0.34644    0.35525    1.000
    C111     C        0.77441    0.33974    0.35091    1.000
    C112     C        0.58984    0.24408    0.13468    1.000
    C113     C        0.64088    0.23816    0.00727    1.000
    C114     C        0.89872    0.63184    0.28734    1.000
    C115     C        0.60289    0.36658    0.04569    1.000
    C116     C        0.03880    0.74420    0.31656    1.000
    C117     C        0.00653    0.73126    0.35939    1.000
    C118     C        0.95390    0.37280    0.35710    1.000
    C119     C        0.56076    0.35252    0.19291    1.000
    C120     C        0.01351    0.26882    0.34919    1.000
    C121     C        0.56549    0.36218    0.14820    1.000
    C122     C        0.10543    0.25586    0.34669    1.000
    C123     C        0.84255    0.23730    0.34740    1.000
    C124     C        0.91944    0.21388    0.34640    1.000
    C125     C        0.20886    0.18712    0.34120    1.000
    C126     C        0.11643    0.18686    0.34150    1.000
    C127     C        0.64574    0.91128    0.78779    1.000
    C128     C        0.63103    0.02106    0.83763    1.000
    C129     C        0.74938    0.67096    0.86734    1.000
    C130     C        0.72486    0.30752    0.61895    1.000
    C131     C        0.71040    0.30920    0.57086    1.000
    C132     C        0.68417    0.81394    0.81684    1.000
    C133     C        0.04478    0.32696    0.85118    1.000
    C134     C        0.64878    0.94856    0.83095    1.000
    C135     C        0.45761    0.31702    0.85205    1.000
    C136     C        0.66900    0.91800    0.86787    1.000
    C137     C        0.64744    0.29808    0.48280    1.000
    C138     C        0.72012    0.28864    0.70861    1.000
    C139     C        0.71892    0.28304    0.75760    1.000
    C140     C        0.78029    0.55398    0.83727    1.000
    C141     C        0.61188    0.29816    0.43685    1.000
    C142     C        0.70989    0.69378    0.78028    1.000
    C143     C        0.68599    0.85138    0.85960    1.000
    C144     C        0.86166    0.25232    0.84736    1.000
    C145     C        0.96464    0.25788    0.84646    1.000
    C146     C        0.66316    0.84452    0.78047    1.000
    C147     C        0.73012    0.36104    0.50225    1.000
    C148     C        0.65073    0.23286    0.67903    1.000
    C149     C        0.75350    0.62040    0.83050    1.000
    C150     C        0.62889    0.24638    0.55152    1.000
    C151     C        0.13747    0.32494    0.85118    1.000
    C152     C        0.31732    0.34644    0.85525    1.000
    C153     C        0.56533    0.33974    0.85091    1.000
    C154     C        0.65424    0.24408    0.63468    1.000
    C155     C        0.59728    0.23816    0.50727    1.000
    C156     C        0.73312    0.63184    0.78734    1.000
    C157     C        0.76369    0.36658    0.54569    1.000
    C158     C        0.70540    0.74420    0.81656    1.000
    C159     C        0.72473    0.73126    0.85939    1.000
    C160     C        0.41890    0.37280    0.85710    1.000
    C161     C        0.79176    0.35252    0.69291    1.000
    C162     C        0.25531    0.26882    0.84919    1.000
    C163     C        0.79669    0.36218    0.64820    1.000
    C164     C        0.15043    0.25586    0.84669    1.000
    C165     C        0.39475    0.23730    0.84740    1.000
    C166     C        0.29444    0.21388    0.84640    1.000
    C167     C        0.97826    0.18712    0.84120    1.000
    C168     C        0.07043    0.18686    0.84150    1.000
    S7       S        0.08687    0.80322    0.40009    1.000
    S8       S        0.15452    0.40524    0.35589    1.000
    S9       S        0.61644    0.18522    0.09127    1.000
    S10      S        0.71635    0.80322    0.90009    1.000
    S11      S        0.25072    0.40524    0.85589    1.000
    S12      S        0.56878    0.18522    0.59127    1.000
    O37      O        0.43672    0.04312    0.30337    1.000
    O38      O        0.54788    0.21876    0.27003    1.000
    O39      O        0.68112    0.23484    0.91628    1.000
    O40      O        0.72001    0.36262    0.92283    1.000
    O41      O        0.41627    0.05810    0.37576    1.000
    O42      O        0.74593    0.54724    0.37686    1.000
    O43      O        0.57864    0.34488    0.28237    1.000
    O44      O        0.68915    0.28762    0.34540    1.000
    O45      O        0.72807    0.50774    0.30457    1.000
    O46      O        0.13532    0.77244    0.42848    1.000
    O47      O        0.39333    0.18778    0.33696    1.000
    O48      O        0.78906    0.40958    0.35415    1.000
    O49      O        0.46318    0.31436    0.35948    1.000
    O50      O        0.04027    0.84994    0.42146    1.000
    O51      O        0.19004    0.45268    0.39773    1.000
    O52      O        0.71161    0.18682    0.09860    1.000
    O53      O        0.53821    0.11062    0.08193    1.000
    O54      O        0.17663    0.44326    0.31688    1.000
    O55      O        0.60640    0.04312    0.80337    1.000
    O56      O        0.67088    0.21876    0.77003    1.000
    O57      O        0.55372    0.23484    0.41628    1.000
    O58      O        0.64261    0.36262    0.42283    1.000
    O59      O        0.64183    0.05810    0.87576    1.000
    O60      O        0.80131    0.54724    0.87686    1.000
    O61      O        0.76624    0.34488    0.78237    1.000
    O62      O        0.59847    0.28762    0.84540    1.000
    O63      O        0.77967    0.50774    0.80457    1.000
    O64      O        0.63712    0.77244    0.92848    1.000
    O65      O        0.79445    0.18778    0.83696    1.000
    O66      O        0.62052    0.40958    0.85415    1.000
    O67      O        0.85118    0.31436    0.85948    1.000
    O68      O        0.80967    0.84994    0.92146    1.000
    O69      O        0.26264    0.45268    0.89773    1.000
    O70      O        0.47521    0.18682    0.59860    1.000
    O71      O        0.57241    0.11062    0.58193    1.000
    O72      O        0.26663    0.44326    0.81688    1.000
