# CIF file generated by openbabel 3.1.0, see https://openbabel.org
data_I
_chemical_name_common 'image0'
_cell_length_a 8.447
_cell_length_b 11.1251
_cell_length_c 17.581
_cell_angle_alpha 77.882
_cell_angle_beta 88.741
_cell_angle_gamma 79.06
_space_group_name_H-M_alt 'P 1'
_space_group_name_Hall 'P 1'
loop_
    _symmetry_equiv_pos_as_xyz
    x,y,z
loop_
    _atom_site_label
    _atom_site_type_symbol
    _atom_site_fract_x
    _atom_site_fract_y
    _atom_site_fract_z
    _atom_site_occupancy
    C1       C        0.79350    0.48630    0.36520    1.000
    C2       C        0.79600    0.42790    0.30120    1.000
    H1       H        0.71180    0.43740    0.26600    1.000
    C3       C        0.94420    0.35530    0.30060    1.000
    H2       H        0.98110    0.30590    0.26490    1.000
    C4       C        0.03430    0.36970    0.36670    1.000
    C5       C        0.18850    0.30750    0.38480    1.000
    C6       C        0.26860    0.31710    0.44800    1.000
    C7       C        0.42840    0.25080    0.47170    1.000
    H3       H        0.49390    0.19670    0.44520    1.000
    C8       C        0.46670    0.27820    0.53580    1.000
    H4       H        0.56100    0.24330    0.56500    1.000
    C9       C        0.33680    0.37320    0.55470    1.000
    C10      C        0.33950    0.42370    0.61780    1.000
    C11      C        0.27070    0.22550    0.33120    1.000
    C12      C        0.35690    0.27810    0.26850    1.000
    H5       H        0.36810    0.36130    0.26140    1.000
    C13      C        0.42810    0.20280    0.21520    1.000
    H6       H        0.48510    0.23800    0.17320    1.000
    C14      C        0.41410    0.08430    0.22470    1.000
    C15      C        0.32880    0.02920    0.28690    1.000
    H7       H        0.31780    0.94610    0.29310    1.000
    C16      C        0.25970    0.10140    0.34020    1.000
    H8       H        0.20530    0.06440    0.38260    1.000
    C17      C        0.58220    0.03920    0.11790    1.000
    H9       H        0.64820    0.96370    0.10680    1.000
    H10      H        0.65300    0.08370    0.13920    1.000
    C18      C        0.50820    0.12120    0.04160    1.000
    C19      C        0.47870    0.38680    0.67410    1.000
    C20      C        0.45390    0.32420    0.75000    1.000
    H11      H        0.35240    0.30690    0.76390    1.000
    C21      C        0.57830    0.28800    0.80430    1.000
    H12      H        0.56050    0.24640    0.85450    1.000
    C22      C        0.73020    0.31370    0.78420    1.000
    C23      C        0.75560    0.37460    0.70940    1.000
    H13      H        0.85720    0.39130    0.69530    1.000
    C24      C        0.62930    0.41120    0.65480    1.000
    H14      H        0.64740    0.45270    0.60460    1.000
    C25      C        0.99860    0.29800    0.83320    1.000
    H15      H        0.99380    0.38750    0.82620    1.000
    H16      H        0.04740    0.27080    0.78770    1.000
    C26      C        0.09500    0.23050    0.90430    1.000
    K1       K        0.84368    0.00772    0.90829    1.000
    N1       N        0.93970    0.44940    0.40680    1.000
    N2       N        0.21230    0.39290    0.50060    1.000
    O1       O        0.46960    0.00420    0.17560    1.000
    O2       O        0.35660    0.16530    0.03970    1.000
    O3       O        0.60080    0.13700    0.98670    1.000
    O4       O        0.84330    0.27050    0.84310    1.000
    O5       O        0.22540    0.27300    0.91230    1.000
    H17      H        0.25550    0.25270    0.95800    1.000
    O6       O        0.05830    0.14440    0.94840    1.000
    C27      C        0.20650    0.51370    0.63480    1.000
    C28      C        0.20400    0.57210    0.69880    1.000
    H18      H        0.28820    0.56260    0.73400    1.000
    C29      C        0.05580    0.64470    0.69940    1.000
    H19      H        0.01890    0.69410    0.73510    1.000
    C30      C        0.96570    0.63030    0.63330    1.000
    C31      C        0.81150    0.69250    0.61520    1.000
    C32      C        0.73140    0.68290    0.55200    1.000
    C33      C        0.57160    0.74920    0.52830    1.000
    H20      H        0.50610    0.80330    0.55480    1.000
    C34      C        0.53330    0.72180    0.46420    1.000
    H21      H        0.43900    0.75670    0.43500    1.000
    C35      C        0.66320    0.62680    0.44530    1.000
    C36      C        0.66050    0.57630    0.38220    1.000
    C37      C        0.72930    0.77450    0.66880    1.000
    C38      C        0.64310    0.72190    0.73150    1.000
    H22      H        0.63190    0.63870    0.73860    1.000
    C39      C        0.57190    0.79720    0.78480    1.000
    H23      H        0.51490    0.76200    0.82680    1.000
    C40      C        0.58590    0.91570    0.77530    1.000
    C41      C        0.67120    0.97080    0.71310    1.000
    H24      H        0.68220    0.05390    0.70690    1.000
    C42      C        0.74030    0.89860    0.65980    1.000
    H25      H        0.79470    0.93560    0.61740    1.000
    C43      C        0.41780    0.96080    0.88210    1.000
    H26      H        0.35180    0.03630    0.89320    1.000
    H27      H        0.34700    0.91630    0.86080    1.000
    C44      C        0.49180    0.87880    0.95840    1.000
    C45      C        0.52130    0.61320    0.32590    1.000
    C46      C        0.54610    0.67580    0.25000    1.000
    H28      H        0.64760    0.69310    0.23610    1.000
    C47      C        0.42170    0.71200    0.19570    1.000
    H29      H        0.43950    0.75360    0.14550    1.000
    C48      C        0.26980    0.68630    0.21580    1.000
    C49      C        0.24440    0.62540    0.29060    1.000
    H30      H        0.14280    0.60870    0.30470    1.000
    C50      C        0.37070    0.58880    0.34520    1.000
    H31      H        0.35260    0.54730    0.39540    1.000
    C51      C        0.00140    0.70200    0.16680    1.000
    H32      H        0.00620    0.61250    0.17380    1.000
    H33      H        0.95260    0.72920    0.21230    1.000
    C52      C        0.90500    0.76950    0.09570    1.000
    K2       K        0.15632    0.99228    0.09171    1.000
    N3       N        0.06030    0.55060    0.59320    1.000
    N4       N        0.78770    0.60710    0.49940    1.000
    O7       O        0.53040    0.99580    0.82440    1.000
    O8       O        0.64340    0.83470    0.96030    1.000
    O9       O        0.39920    0.86300    0.01330    1.000
    O10      O        0.15670    0.72950    0.15690    1.000
    O11      O        0.77460    0.72700    0.08770    1.000
    H34      H        0.74450    0.74730    0.04200    1.000
    O12      O        0.94170    0.85560    0.05160    1.000
    Ni1      Ni       0.00000    0.50000    0.50000    1.000
