# CIF file generated by openbabel 3.1.0, see https://openbabel.org
data_I
_chemical_name_common 'image0'
_cell_length_a 13.73
_cell_length_b 14.03
_cell_length_c 14.1
_cell_angle_alpha 115.655
_cell_angle_beta 111.027
_cell_angle_gamma 100.397
_space_group_name_H-M_alt 'P 1'
_space_group_name_Hall 'P 1'
loop_
    _symmetry_equiv_pos_as_xyz
    x,y,z
loop_
    _atom_site_label
    _atom_site_type_symbol
    _atom_site_fract_x
    _atom_site_fract_y
    _atom_site_fract_z
    _atom_site_occupancy
    Mn1      Mn       0.79480    0.61810    0.62120    1.000
    Si1      Si       0.52080    0.84940    0.11710    1.000
    O1       O        0.78330    0.77440    0.76930    1.000
    O2       O        0.66510    0.59350    0.67480    1.000
    O3       O        0.97900    0.70500    0.69490    1.000
    O4       O        0.93280    0.63710    0.79700    1.000
    O5       O        0.55990    0.62900    0.46790    1.000
    O6       O        0.73350    0.65980    0.48970    1.000
    O7       O        0.59200    0.41150    0.42900    1.000
    O8       O        0.77310    0.44840    0.51950    1.000
    C1       C        0.70400    0.69970    0.75800    1.000
    C2       C        0.66430    0.73790    0.84990    1.000
    C3       C        0.70720    0.85370    0.94010    1.000
    H1       H        0.76320    0.90960    0.94530    1.000
    C4       C        0.66820    0.88770    0.02280    1.000
    H2       H        0.69750    0.96690    0.08450    1.000
    C5       C        0.58630    0.80600    0.01520    1.000
    C6       C        0.54340    0.69020    0.92490    1.000
    H3       H        0.48740    0.63430    0.91970    1.000
    C7       C        0.58240    0.65610    0.84230    1.000
    H4       H        0.55310    0.57700    0.78060    1.000
    C8       C        0.00510    0.68500    0.77900    1.000
    C9       C        0.13030    0.72480    0.86130    1.000
    C10      C        0.16500    0.71390    0.96030    1.000
    H5       H        0.11000    0.68300    0.97660    1.000
    C11      C        0.28010    0.74820    0.03550    1.000
    H6       H        0.30370    0.74070    0.10310    1.000
    C12      C        0.36050    0.79340    0.01160    1.000
    C13      C        0.32580    0.80430    0.91260    1.000
    H7       H        0.38080    0.83520    0.89640    1.000
    C14      C        0.21080    0.77000    0.83750    1.000
    H8       H        0.18710    0.77740    0.76980    1.000
    C15      C        0.64000    0.66100    0.44800    1.000
    C16      C        0.60560    0.70050    0.36150    1.000
    C17      C        0.65050    0.68400    0.28430    1.000
    H9       H        0.69990    0.64450    0.28320    1.000
    C18      C        0.62310    0.72520    0.20890    1.000
    H10      H        0.65380    0.71390    0.15610    1.000
    C19      C        0.55080    0.78290    0.21060    1.000
    C20      C        0.50590    0.79940    0.28770    1.000
    H11      H        0.45640    0.83890    0.28890    1.000
    C21      C        0.53330    0.75820    0.36320    1.000
    H12      H        0.50260    0.76950    0.41590    1.000
    C22      C        0.67090    0.37490    0.44700    1.000
    C23      C        0.64030    0.24700    0.37240    1.000
    C24      C        0.52540    0.17690    0.29220    1.000
    H13      H        0.47050    0.20980    0.28860    1.000
    C25      C        0.49080    0.05860    0.21710    1.000
    H14      H        0.41220    0.01070    0.16230    1.000
    C26      C        0.57110    0.01050    0.22230    1.000
    C27      C        0.68610    0.08060    0.30260    1.000
    H15      H        0.74100    0.04770    0.30610    1.000
    C28      C        0.72070    0.19880    0.37760    1.000
    H16      H        0.79920    0.24680    0.43240    1.000
    Mn2      Mn       0.20520    0.38190    0.37880    1.000
    Si2      Si       0.47920    0.15060    0.88290    1.000
    O9       O        0.21670    0.22560    0.23070    1.000
    O10      O        0.33490    0.40650    0.32520    1.000
    O11      O        0.02100    0.29500    0.30510    1.000
    O12      O        0.06720    0.36290    0.20300    1.000
    O13      O        0.44010    0.37100    0.53210    1.000
    O14      O        0.26650    0.34020    0.51030    1.000
    O15      O        0.40800    0.58850    0.57100    1.000
    O16      O        0.22690    0.55160    0.48050    1.000
    C29      C        0.29600    0.30030    0.24200    1.000
    C30      C        0.33570    0.26210    0.15010    1.000
    C31      C        0.29280    0.14630    0.05990    1.000
    H17      H        0.23680    0.09040    0.05470    1.000
    C32      C        0.33180    0.11230    0.97720    1.000
    H18      H        0.30250    0.03310    0.91550    1.000
    C33      C        0.41370    0.19400    0.98480    1.000
    C34      C        0.45660    0.30980    0.07510    1.000
    H19      H        0.51260    0.36570    0.08030    1.000
    C35      C        0.41760    0.34390    0.15770    1.000
    H20      H        0.44690    0.42300    0.21940    1.000
    C36      C        0.99490    0.31500    0.22100    1.000
    C37      C        0.86970    0.27520    0.13870    1.000
    C38      C        0.83500    0.28610    0.03970    1.000
    H21      H        0.89000    0.31700    0.02340    1.000
    C39      C        0.71990    0.25180    0.96450    1.000
    H22      H        0.69630    0.25930    0.89690    1.000
    C40      C        0.63950    0.20660    0.98840    1.000
    C41      C        0.67420    0.19570    0.08740    1.000
    H23      H        0.61920    0.16480    0.10360    1.000
    C42      C        0.78920    0.23000    0.16250    1.000
    H24      H        0.81290    0.22260    0.23020    1.000
    C43      C        0.36000    0.33900    0.55200    1.000
    C44      C        0.39440    0.29950    0.63850    1.000
    C45      C        0.34950    0.31600    0.71570    1.000
    H25      H        0.30010    0.35550    0.71680    1.000
    C46      C        0.37690    0.27480    0.79110    1.000
    H26      H        0.34620    0.28610    0.84390    1.000
    C47      C        0.44920    0.21710    0.78940    1.000
    C48      C        0.49410    0.20060    0.71230    1.000
    H27      H        0.54360    0.16110    0.71110    1.000
    C49      C        0.46670    0.24180    0.63680    1.000
    H28      H        0.49740    0.23050    0.58410    1.000
    C50      C        0.32910    0.62510    0.55300    1.000
    C51      C        0.35970    0.75300    0.62760    1.000
    C52      C        0.47460    0.82310    0.70780    1.000
    H29      H        0.52950    0.79020    0.71140    1.000
    C53      C        0.50920    0.94140    0.78290    1.000
    H30      H        0.58780    0.98930    0.83770    1.000
    C54      C        0.42890    0.98950    0.77770    1.000
    C55      C        0.31390    0.91940    0.69740    1.000
    H31      H        0.25900    0.95230    0.69390    1.000
    C56      C        0.27930    0.80120    0.62240    1.000
    H32      H        0.20080    0.75320    0.56760    1.000
    Mn3      Mn       0.50000    0.50000    0.50000    1.000
