# CIF file generated by openbabel 3.1.0, see https://openbabel.org
data_I
_chemical_name_common 'image0'
_cell_length_a 23.775
_cell_length_b 28.132
_cell_length_c 14.991
_cell_angle_alpha 90
_cell_angle_beta 90
_cell_angle_gamma 90
_space_group_name_H-M_alt 'P 1'
_space_group_name_Hall 'P 1'
loop_
    _symmetry_equiv_pos_as_xyz
    x,y,z
loop_
    _atom_site_label
    _atom_site_type_symbol
    _atom_site_fract_x
    _atom_site_fract_y
    _atom_site_fract_z
    _atom_site_occupancy
    C1       C        0.45350    0.32490    0.82410    1.000
    C2       C        0.46410    0.36400    0.75700    1.000
    C3       C        0.42240    0.37680    0.69640    1.000
    H1       H        0.38750    0.36190    0.69830    1.000
    C4       C        0.43280    0.41150    0.63380    1.000
    C5       C        0.48530    0.43440    0.63300    1.000
    H2       H        0.49220    0.45840    0.59180    1.000
    C6       C        0.52620    0.42160    0.69230    1.000
    C7       C        0.51540    0.38610    0.75420    1.000
    H3       H        0.54340    0.37710    0.79430    1.000
    C8       C        0.38910    0.42610    0.56630    1.000
    C9       C        0.58360    0.44510    0.68880    1.000
    C10      C        0.35650    0.18140    0.05330    1.000
    C11      C        0.32460    0.13680    0.07640    1.000
    C12      C        0.33170    0.11590    0.15930    1.000
    H4       H        0.35530    0.12990    0.20130    1.000
    C13      C        0.30330    0.07380    0.17960    1.000
    C14      C        0.26850    0.05260    0.11740    1.000
    H5       H        0.25060    0.02410    0.13070    1.000
    C15      C        0.26050    0.07410    0.03450    1.000
    C16      C        0.28970    0.11620    0.01580    1.000
    H6       H        0.28500    0.13050    0.96040    1.000
    C17      C        0.31390    0.05150    0.26850    1.000
    C18      C        0.22370    0.05280    0.96570    1.000
    C19      C        0.39500    0.22580    0.28740    1.000
    C20      C        0.43440    0.17270    0.39970    1.000
    H7       H        0.44780    0.14970    0.35750    1.000
    H8       H        0.42160    0.15680    0.45250    1.000
    H9       H        0.46430    0.19410    0.41480    1.000
    C21      C        0.32610    0.19270    0.39080    1.000
    H10      H        0.32340    0.19880    0.45360    1.000
    H11      H        0.31460    0.16060    0.37880    1.000
    H12      H        0.30200    0.21430    0.35910    1.000
    Co1      Co       0.35439    0.47847    0.41375    1.000
    Co2      Co       0.70705    0.43614    0.74164    1.000
    N1       N        0.38740    0.19970    0.36000    1.000
    O1       O        0.48950    0.32030    0.88500    1.000
    O2       O        0.41030    0.30100    0.81670    1.000
    O3       O        0.33935    0.41260    0.57380    1.000
    O4       O        0.40714    0.45265    0.50420    1.000
    O5       O        0.62170    0.42850    0.73600    1.000
    O6       O        0.58681    0.48015    0.63580    1.000
    O7       O        0.38970    0.19675    0.11090    1.000
    O8       O        0.34610    0.19890    0.97860    1.000
    O9       O        0.33980    0.42560    0.32770    1.000
    O10      O        0.29793    0.49071    0.28450    1.000
    O11      O        0.30132    0.51403    0.48710    1.000
    O12      O        0.71860    0.42617    0.60720    1.000
    O13      O        0.43960    0.23480    0.25340    1.000
    C22      C        0.04650    0.67510    0.32410    1.000
    C23      C        0.03590    0.63600    0.25700    1.000
    C24      C        0.07760    0.62320    0.19640    1.000
    H13      H        0.11250    0.63810    0.19830    1.000
    C25      C        0.06720    0.58850    0.13380    1.000
    C26      C        0.01470    0.56560    0.13300    1.000
    H14      H        0.00780    0.54160    0.09180    1.000
    C27      C        0.97380    0.57840    0.19230    1.000
    C28      C        0.98460    0.61390    0.25420    1.000
    H15      H        0.95660    0.62290    0.29430    1.000
    C29      C        0.11090    0.57390    0.06630    1.000
    C30      C        0.91640    0.55490    0.18880    1.000
    C31      C        0.14350    0.81860    0.55330    1.000
    C32      C        0.17540    0.86320    0.57640    1.000
    C33      C        0.16830    0.88410    0.65930    1.000
    H16      H        0.14470    0.87010    0.70130    1.000
    C34      C        0.19670    0.92620    0.67960    1.000
    C35      C        0.23150    0.94740    0.61740    1.000
    H17      H        0.24940    0.97590    0.63070    1.000
    C36      C        0.23950    0.92590    0.53450    1.000
    C37      C        0.21030    0.88380    0.51580    1.000
    H18      H        0.21500    0.86950    0.46040    1.000
    C38      C        0.18610    0.94850    0.76850    1.000
    C39      C        0.27630    0.94720    0.46570    1.000
    C40      C        0.10500    0.77420    0.78740    1.000
    C41      C        0.06560    0.82730    0.89970    1.000
    H19      H        0.05220    0.85030    0.85750    1.000
    H20      H        0.07840    0.84320    0.95250    1.000
    H21      H        0.03570    0.80590    0.91480    1.000
    C42      C        0.17390    0.80730    0.89080    1.000
    H22      H        0.17660    0.80120    0.95360    1.000
    H23      H        0.18540    0.83940    0.87880    1.000
    H24      H        0.19800    0.78570    0.85910    1.000
    Co3      Co       0.14561    0.52153    0.91375    1.000
    Co4      Co       0.79295    0.56386    0.24164    1.000
    N2       N        0.11260    0.80030    0.86000    1.000
    O14      O        0.01050    0.67970    0.38500    1.000
    O15      O        0.08970    0.69900    0.31670    1.000
    O16      O        0.16065    0.58740    0.07380    1.000
    O17      O        0.09286    0.54735    0.00420    1.000
    O18      O        0.87830    0.57150    0.23600    1.000
    O19      O        0.91319    0.51985    0.13580    1.000
    O20      O        0.11030    0.80325    0.61090    1.000
    O21      O        0.15390    0.80110    0.47860    1.000
    O22      O        0.16020    0.57440    0.82770    1.000
    O23      O        0.20207    0.50929    0.78450    1.000
    O24      O        0.19868    0.48597    0.98710    1.000
    O25      O        0.78140    0.57383    0.10720    1.000
    O26      O        0.06040    0.76520    0.75340    1.000
    C43      C        0.54650    0.82490    0.17590    1.000
    C44      C        0.53590    0.86400    0.24300    1.000
    C45      C        0.57760    0.87680    0.30360    1.000
    H25      H        0.61250    0.86190    0.30170    1.000
    C46      C        0.56720    0.91150    0.36620    1.000
    C47      C        0.51470    0.93440    0.36700    1.000
    H26      H        0.50780    0.95840    0.40820    1.000
    C48      C        0.47380    0.92160    0.30770    1.000
    C49      C        0.48460    0.88610    0.24580    1.000
    H27      H        0.45660    0.87710    0.20570    1.000
    C50      C        0.61090    0.92610    0.43370    1.000
    C51      C        0.41640    0.94510    0.31120    1.000
    C52      C        0.64350    0.68140    0.94670    1.000
    C53      C        0.67540    0.63680    0.92360    1.000
    C54      C        0.66830    0.61590    0.84070    1.000
    H28      H        0.64470    0.62990    0.79870    1.000
    C55      C        0.69670    0.57380    0.82040    1.000
    C56      C        0.73150    0.55260    0.88260    1.000
    H29      H        0.74940    0.52410    0.86930    1.000
    C57      C        0.73950    0.57410    0.96550    1.000
    C58      C        0.71030    0.61620    0.98420    1.000
    H30      H        0.71500    0.63050    0.03960    1.000
    C59      C        0.68610    0.55150    0.73150    1.000
    C60      C        0.77630    0.55280    0.03430    1.000
    C61      C        0.60500    0.72580    0.71260    1.000
    C62      C        0.56560    0.67270    0.60030    1.000
    H31      H        0.55220    0.64970    0.64250    1.000
    H32      H        0.57840    0.65680    0.54750    1.000
    H33      H        0.53570    0.69410    0.58520    1.000
    C63      C        0.67390    0.69270    0.60920    1.000
    H34      H        0.67660    0.69880    0.54640    1.000
    H35      H        0.68540    0.66060    0.62120    1.000
    H36      H        0.69800    0.71430    0.64090    1.000
    Co5      Co       0.64561    0.97847    0.58625    1.000
    Co6      Co       0.29295    0.93614    0.25836    1.000
    N3       N        0.61260    0.69970    0.64000    1.000
    O27      O        0.51050    0.82030    0.11500    1.000
    O28      O        0.58970    0.80100    0.18330    1.000
    O29      O        0.66065    0.91260    0.42620    1.000
    O30      O        0.59286    0.95265    0.49580    1.000
    O31      O        0.37830    0.92850    0.26400    1.000
    O32      O        0.41319    0.98015    0.36420    1.000
    O33      O        0.61030    0.69675    0.88910    1.000
    O34      O        0.65390    0.69890    0.02140    1.000
    O35      O        0.66020    0.92560    0.67230    1.000
    O36      O        0.70207    0.99071    0.71550    1.000
    O37      O        0.69868    0.01403    0.51290    1.000
    O38      O        0.28140    0.92617    0.39280    1.000
    O39      O        0.56040    0.73480    0.74660    1.000
    C64      C        0.95350    0.17510    0.67590    1.000
    C65      C        0.96410    0.13600    0.74300    1.000
    C66      C        0.92240    0.12320    0.80360    1.000
    H37      H        0.88750    0.13810    0.80170    1.000
    C67      C        0.93280    0.08850    0.86620    1.000
    C68      C        0.98530    0.06560    0.86700    1.000
    H38      H        0.99220    0.04160    0.90820    1.000
    C69      C        0.02620    0.07840    0.80770    1.000
    C70      C        0.01540    0.11390    0.74580    1.000
    H39      H        0.04340    0.12290    0.70570    1.000
    C71      C        0.88910    0.07390    0.93370    1.000
    C72      C        0.08360    0.05490    0.81120    1.000
    C73      C        0.85650    0.31860    0.44670    1.000
    C74      C        0.82460    0.36320    0.42360    1.000
    C75      C        0.83170    0.38410    0.34070    1.000
    H40      H        0.85530    0.37010    0.29870    1.000
    C76      C        0.80330    0.42620    0.32040    1.000
    C77      C        0.76850    0.44740    0.38260    1.000
    H41      H        0.75060    0.47590    0.36930    1.000
    C78      C        0.76050    0.42590    0.46550    1.000
    C79      C        0.78970    0.38380    0.48420    1.000
    H42      H        0.78500    0.36950    0.53960    1.000
    C80      C        0.81390    0.44850    0.23150    1.000
    C81      C        0.72370    0.44720    0.53430    1.000
    C82      C        0.89500    0.27420    0.21260    1.000
    C83      C        0.93440    0.32730    0.10030    1.000
    H43      H        0.94780    0.35030    0.14250    1.000
    H44      H        0.92160    0.34320    0.04750    1.000
    H45      H        0.96430    0.30590    0.08520    1.000
    C84      C        0.82610    0.30730    0.10920    1.000
    H46      H        0.82340    0.30120    0.04640    1.000
    H47      H        0.81460    0.33940    0.12120    1.000
    H48      H        0.80200    0.28570    0.14090    1.000
    Co7      Co       0.85439    0.02153    0.08625    1.000
    Co8      Co       0.20705    0.06386    0.75836    1.000
    N4       N        0.88740    0.30030    0.14000    1.000
    O40      O        0.98950    0.17970    0.61500    1.000
    O41      O        0.91030    0.19900    0.68330    1.000
    O42      O        0.83935    0.08740    0.92620    1.000
    O43      O        0.90714    0.04735    0.99580    1.000
    O44      O        0.12170    0.07150    0.76400    1.000
    O45      O        0.08681    0.01985    0.86420    1.000
    O46      O        0.88970    0.30325    0.38910    1.000
    O47      O        0.84610    0.30110    0.52140    1.000
    O48      O        0.83980    0.07440    0.17230    1.000
    O49      O        0.79793    0.00929    0.21550    1.000
    O50      O        0.80132    0.98597    0.01290    1.000
    O51      O        0.21860    0.07383    0.89280    1.000
    O52      O        0.93960    0.26520    0.24660    1.000
    C85      C        0.54650    0.67510    0.17590    1.000
    C86      C        0.53590    0.63600    0.24300    1.000
    C87      C        0.57760    0.62320    0.30360    1.000
    H49      H        0.61250    0.63810    0.30170    1.000
    C88      C        0.56720    0.58850    0.36620    1.000
    C89      C        0.51470    0.56560    0.36700    1.000
    H50      H        0.50780    0.54160    0.40820    1.000
    C90      C        0.47380    0.57840    0.30770    1.000
    C91      C        0.48460    0.61390    0.24580    1.000
    H51      H        0.45660    0.62290    0.20570    1.000
    C92      C        0.61090    0.57390    0.43370    1.000
    C93      C        0.41640    0.55490    0.31120    1.000
    C94      C        0.64350    0.81860    0.94670    1.000
    C95      C        0.67540    0.86320    0.92360    1.000
    C96      C        0.66830    0.88410    0.84070    1.000
    H52      H        0.64470    0.87010    0.79870    1.000
    C97      C        0.69670    0.92620    0.82040    1.000
    C98      C        0.73150    0.94740    0.88260    1.000
    H53      H        0.74940    0.97590    0.86930    1.000
    C99      C        0.73950    0.92590    0.96550    1.000
    C100     C        0.71030    0.88380    0.98420    1.000
    H54      H        0.71500    0.86950    0.03960    1.000
    C101     C        0.68610    0.94850    0.73150    1.000
    C102     C        0.77630    0.94720    0.03430    1.000
    C103     C        0.60500    0.77420    0.71260    1.000
    C104     C        0.56560    0.82730    0.60030    1.000
    H55      H        0.55220    0.85030    0.64250    1.000
    H56      H        0.57840    0.84320    0.54750    1.000
    H57      H        0.53570    0.80590    0.58520    1.000
    C105     C        0.67390    0.80730    0.60920    1.000
    H58      H        0.67660    0.80120    0.54640    1.000
    H59      H        0.68540    0.83940    0.62120    1.000
    H60      H        0.69800    0.78570    0.64090    1.000
    Co9      Co       0.64561    0.52153    0.58625    1.000
    Co10     Co       0.29295    0.56386    0.25836    1.000
    N5       N        0.61260    0.80030    0.64000    1.000
    O53      O        0.51050    0.67970    0.11500    1.000
    O54      O        0.58970    0.69900    0.18330    1.000
    O55      O        0.66065    0.58740    0.42620    1.000
    O56      O        0.59286    0.54735    0.49580    1.000
    O57      O        0.37830    0.57150    0.26400    1.000
    O58      O        0.41319    0.51985    0.36420    1.000
    O59      O        0.61030    0.80325    0.88910    1.000
    O60      O        0.65390    0.80110    0.02140    1.000
    O61      O        0.66020    0.57440    0.67230    1.000
    O62      O        0.70207    0.50929    0.71550    1.000
    O63      O        0.69868    0.48597    0.51290    1.000
    O64      O        0.28140    0.57383    0.39280    1.000
    O65      O        0.56040    0.76520    0.74660    1.000
    C106     C        0.95350    0.32490    0.67590    1.000
    C107     C        0.96410    0.36400    0.74300    1.000
    C108     C        0.92240    0.37680    0.80360    1.000
    H61      H        0.88750    0.36190    0.80170    1.000
    C109     C        0.93280    0.41150    0.86620    1.000
    C110     C        0.98530    0.43440    0.86700    1.000
    H62      H        0.99220    0.45840    0.90820    1.000
    C111     C        0.02620    0.42160    0.80770    1.000
    C112     C        0.01540    0.38610    0.74580    1.000
    H63      H        0.04340    0.37710    0.70570    1.000
    C113     C        0.88910    0.42610    0.93370    1.000
    C114     C        0.08360    0.44510    0.81120    1.000
    C115     C        0.85650    0.18140    0.44670    1.000
    C116     C        0.82460    0.13680    0.42360    1.000
    C117     C        0.83170    0.11590    0.34070    1.000
    H64      H        0.85530    0.12990    0.29870    1.000
    C118     C        0.80330    0.07380    0.32040    1.000
    C119     C        0.76850    0.05260    0.38260    1.000
    H65      H        0.75060    0.02410    0.36930    1.000
    C120     C        0.76050    0.07410    0.46550    1.000
    C121     C        0.78970    0.11620    0.48420    1.000
    H66      H        0.78500    0.13050    0.53960    1.000
    C122     C        0.81390    0.05150    0.23150    1.000
    C123     C        0.72370    0.05280    0.53430    1.000
    C124     C        0.89500    0.22580    0.21260    1.000
    C125     C        0.93440    0.17270    0.10030    1.000
    H67      H        0.94780    0.14970    0.14250    1.000
    H68      H        0.92160    0.15680    0.04750    1.000
    H69      H        0.96430    0.19410    0.08520    1.000
    C126     C        0.82610    0.19270    0.10920    1.000
    H70      H        0.82340    0.19880    0.04640    1.000
    H71      H        0.81460    0.16060    0.12120    1.000
    H72      H        0.80200    0.21430    0.14090    1.000
    Co11     Co       0.85439    0.47847    0.08625    1.000
    Co12     Co       0.20705    0.43614    0.75836    1.000
    N6       N        0.88740    0.19970    0.14000    1.000
    O66      O        0.98950    0.32030    0.61500    1.000
    O67      O        0.91030    0.30100    0.68330    1.000
    O68      O        0.83935    0.41260    0.92620    1.000
    O69      O        0.90714    0.45265    0.99580    1.000
    O70      O        0.12170    0.42850    0.76400    1.000
    O71      O        0.08681    0.48015    0.86420    1.000
    O72      O        0.88970    0.19675    0.38910    1.000
    O73      O        0.84610    0.19890    0.52140    1.000
    O74      O        0.83980    0.42560    0.17230    1.000
    O75      O        0.79793    0.49071    0.21550    1.000
    O76      O        0.80132    0.51403    0.01290    1.000
    O77      O        0.21860    0.42617    0.89280    1.000
    O78      O        0.93960    0.23480    0.24660    1.000
    C127     C        0.45350    0.17510    0.82410    1.000
    C128     C        0.46410    0.13600    0.75700    1.000
    C129     C        0.42240    0.12320    0.69640    1.000
    H73      H        0.38750    0.13810    0.69830    1.000
    C130     C        0.43280    0.08850    0.63380    1.000
    C131     C        0.48530    0.06560    0.63300    1.000
    H74      H        0.49220    0.04160    0.59180    1.000
    C132     C        0.52620    0.07840    0.69230    1.000
    C133     C        0.51540    0.11390    0.75420    1.000
    H75      H        0.54340    0.12290    0.79430    1.000
    C134     C        0.38910    0.07390    0.56630    1.000
    C135     C        0.58360    0.05490    0.68880    1.000
    C136     C        0.35650    0.31860    0.05330    1.000
    C137     C        0.32460    0.36320    0.07640    1.000
    C138     C        0.33170    0.38410    0.15930    1.000
    H76      H        0.35530    0.37010    0.20130    1.000
    C139     C        0.30330    0.42620    0.17960    1.000
    C140     C        0.26850    0.44740    0.11740    1.000
    H77      H        0.25060    0.47590    0.13070    1.000
    C141     C        0.26050    0.42590    0.03450    1.000
    C142     C        0.28970    0.38380    0.01580    1.000
    H78      H        0.28500    0.36950    0.96040    1.000
    C143     C        0.31390    0.44850    0.26850    1.000
    C144     C        0.22370    0.44720    0.96570    1.000
    C145     C        0.39500    0.27420    0.28740    1.000
    C146     C        0.43440    0.32730    0.39970    1.000
    H79      H        0.44780    0.35030    0.35750    1.000
    H80      H        0.42160    0.34320    0.45250    1.000
    H81      H        0.46430    0.30590    0.41480    1.000
    C147     C        0.32610    0.30730    0.39080    1.000
    H82      H        0.32340    0.30120    0.45360    1.000
    H83      H        0.31460    0.33940    0.37880    1.000
    H84      H        0.30200    0.28570    0.35910    1.000
    Co13     Co       0.35439    0.02153    0.41375    1.000
    Co14     Co       0.70705    0.06386    0.74164    1.000
    N7       N        0.38740    0.30030    0.36000    1.000
    O79      O        0.48950    0.17970    0.88500    1.000
    O80      O        0.41030    0.19900    0.81670    1.000
    O81      O        0.33935    0.08740    0.57380    1.000
    O82      O        0.40714    0.04735    0.50420    1.000
    O83      O        0.62170    0.07150    0.73600    1.000
    O84      O        0.58681    0.01985    0.63580    1.000
    O85      O        0.38970    0.30325    0.11090    1.000
    O86      O        0.34610    0.30110    0.97860    1.000
    O87      O        0.33980    0.07440    0.32770    1.000
    O88      O        0.29793    0.00929    0.28450    1.000
    O89      O        0.30132    0.98597    0.48710    1.000
    O90      O        0.71860    0.07383    0.60720    1.000
    O91      O        0.43960    0.26520    0.25340    1.000
    C148     C        0.04650    0.82490    0.32410    1.000
    C149     C        0.03590    0.86400    0.25700    1.000
    C150     C        0.07760    0.87680    0.19640    1.000
    H85      H        0.11250    0.86190    0.19830    1.000
    C151     C        0.06720    0.91150    0.13380    1.000
    C152     C        0.01470    0.93440    0.13300    1.000
    H86      H        0.00780    0.95840    0.09180    1.000
    C153     C        0.97380    0.92160    0.19230    1.000
    C154     C        0.98460    0.88610    0.25420    1.000
    H87      H        0.95660    0.87710    0.29430    1.000
    C155     C        0.11090    0.92610    0.06630    1.000
    C156     C        0.91640    0.94510    0.18880    1.000
    C157     C        0.14350    0.68140    0.55330    1.000
    C158     C        0.17540    0.63680    0.57640    1.000
    C159     C        0.16830    0.61590    0.65930    1.000
    H88      H        0.14470    0.62990    0.70130    1.000
    C160     C        0.19670    0.57380    0.67960    1.000
    C161     C        0.23150    0.55260    0.61740    1.000
    H89      H        0.24940    0.52410    0.63070    1.000
    C162     C        0.23950    0.57410    0.53450    1.000
    C163     C        0.21030    0.61620    0.51580    1.000
    H90      H        0.21500    0.63050    0.46040    1.000
    C164     C        0.18610    0.55150    0.76850    1.000
    C165     C        0.27630    0.55280    0.46570    1.000
    C166     C        0.10500    0.72580    0.78740    1.000
    C167     C        0.06560    0.67270    0.89970    1.000
    H91      H        0.05220    0.64970    0.85750    1.000
    H92      H        0.07840    0.65680    0.95250    1.000
    H93      H        0.03570    0.69410    0.91480    1.000
    C168     C        0.17390    0.69270    0.89080    1.000
    H94      H        0.17660    0.69880    0.95360    1.000
    H95      H        0.18540    0.66060    0.87880    1.000
    H96      H        0.19800    0.71430    0.85910    1.000
    Co15     Co       0.14561    0.97847    0.91375    1.000
    Co16     Co       0.79295    0.93614    0.24164    1.000
    N8       N        0.11260    0.69970    0.86000    1.000
    O92      O        0.01050    0.82030    0.38500    1.000
    O93      O        0.08970    0.80100    0.31670    1.000
    O94      O        0.16065    0.91260    0.07380    1.000
    O95      O        0.09286    0.95265    0.00420    1.000
    O96      O        0.87830    0.92850    0.23600    1.000
    O97      O        0.91319    0.98015    0.13580    1.000
    O98      O        0.11030    0.69675    0.61090    1.000
    O99      O        0.15390    0.69890    0.47860    1.000
    O100     O        0.16020    0.92560    0.82770    1.000
    O101     O        0.20207    0.99071    0.78450    1.000
    O102     O        0.19868    0.01403    0.98710    1.000
    O103     O        0.78140    0.92617    0.10720    1.000
    O104     O        0.06040    0.73480    0.75340    1.000
    Co17     Co       0.37951    0.25000    0.90331    1.000
    Co18     Co       0.44800    0.25000    0.11544    1.000
    O105     O        0.45770    0.25000    0.97710    1.000
    Co19     Co       0.12049    0.75000    0.40331    1.000
    Co20     Co       0.05200    0.75000    0.61544    1.000
    O106     O        0.04230    0.75000    0.47710    1.000
    Co21     Co       0.62049    0.75000    0.09669    1.000
    Co22     Co       0.55200    0.75000    0.88456    1.000
    O107     O        0.54230    0.75000    0.02290    1.000
    Co23     Co       0.87951    0.25000    0.59669    1.000
    Co24     Co       0.94800    0.25000    0.38456    1.000
    O108     O        0.95770    0.25000    0.52290    1.000
