# CIF file generated by openbabel 3.1.0, see https://openbabel.org
data_I
_chemical_name_common 'image0'
_cell_length_a 18.1568
_cell_length_b 18.1568
_cell_length_c 48.6603
_cell_angle_alpha 90
_cell_angle_beta 90
_cell_angle_gamma 120
_space_group_name_H-M_alt 'P 1'
_space_group_name_Hall 'P 1'
loop_
    _symmetry_equiv_pos_as_xyz
    x,y,z
loop_
    _atom_site_label
    _atom_site_type_symbol
    _atom_site_fract_x
    _atom_site_fract_y
    _atom_site_fract_z
    _atom_site_occupancy
    Cu1      Cu       0.51130    0.44710    0.52000    1.000
    C1       C        0.62540    0.54560    0.47210    1.000
    O1       O        0.60900    0.51380    0.49620    1.000
    O2       O        0.56870    0.55100    0.45850    1.000
    C2       C        0.80510    0.63900    0.42260    1.000
    C3       C        0.86760    0.62900    0.43580    1.000
    H1       H        0.91930    0.64700    0.42740    1.000
    C4       C        0.85190    0.59200    0.46170    1.000
    C5       C        0.77380    0.56400    0.47440    1.000
    H2       H        0.76350    0.54000    0.49150    1.000
    C6       C        0.71140    0.57410    0.46110    1.000
    C7       C        0.72710    0.61120    0.43520    1.000
    H3       H        0.68570    0.61800    0.42640    1.000
    C8       C        0.90750    0.56790    0.47910    1.000
    O3       O        0.87660    0.53100    0.50180    1.000
    O4       O        0.97970    0.58100    0.47120    1.000
    N1       N        0.84040    0.68040    0.39680    1.000
    C9       C        0.79500    0.69700    0.37890    1.000
    O5       O        0.71900    0.66900    0.38120    1.000
    H4       H        0.89350    0.69900    0.39240    1.000
    C10      C        0.83230    0.72970    0.35070    1.000
    C11      C        0.78150    0.73300    0.33000    1.000
    C12      C        0.81500    0.76300    0.30410    1.000
    C13      C        0.90000    0.78950    0.29890    1.000
    C14      C        0.95120    0.78600    0.31960    1.000
    C15      C        0.91720    0.75600    0.34550    1.000
    H5       H        0.72530    0.71600    0.33350    1.000
    H6       H        0.78200    0.76600    0.29040    1.000
    H7       H        0.00740    0.80300    0.31610    1.000
    H8       H        0.95090    0.75400    0.35920    1.000
    C16      C        0.93560    0.82050    0.27200    1.000
    C17      C        0.89880    0.77880    0.24580    1.000
    N2       N        0.93200    0.80670    0.22090    1.000
    C18      C        0.00600    0.87930    0.21950    1.000
    N3       N        0.04900    0.92620    0.24110    1.000
    C19      C        0.01570    0.89830    0.26600    1.000
    H9       H        0.04370    0.92900    0.28140    1.000
    H10      H        0.03100    0.90000    0.20270    1.000
    H11      H        0.84790    0.72850    0.24550    1.000
    C20      C        0.78040    0.70050    0.32770    1.000
    C21      C        0.81400    0.73000    0.30170    1.000
    C22      C        0.95230    0.81870    0.32200    1.000
    C23      C        0.91830    0.78880    0.34790    1.000
    H12      H        0.72350    0.66100    0.32950    1.000
    H13      H        0.78000    0.71100    0.28650    1.000
    H14      H        0.00920    0.85800    0.32010    1.000
    H15      H        0.95270    0.80800    0.36320    1.000
    Cu2      Cu       0.17797    0.78043    0.85333    1.000
    C24      C        0.29207    0.87893    0.80543    1.000
    O6       O        0.27567    0.84713    0.82953    1.000
    O7       O        0.23537    0.88433    0.79183    1.000
    C25      C        0.47177    0.97233    0.75593    1.000
    C26      C        0.53427    0.96233    0.76913    1.000
    H16      H        0.58597    0.98033    0.76073    1.000
    C27      C        0.51857    0.92533    0.79503    1.000
    C28      C        0.44047    0.89733    0.80773    1.000
    H17      H        0.43017    0.87333    0.82483    1.000
    C29      C        0.37807    0.90743    0.79443    1.000
    C30      C        0.39377    0.94453    0.76853    1.000
    H18      H        0.35237    0.95133    0.75973    1.000
    C31      C        0.57417    0.90123    0.81243    1.000
    O8       O        0.54327    0.86433    0.83513    1.000
    O9       O        0.64637    0.91433    0.80453    1.000
    N4       N        0.50707    0.01373    0.73013    1.000
    C32      C        0.46167    0.03033    0.71223    1.000
    O10      O        0.38567    0.00233    0.71453    1.000
    H19      H        0.56017    0.03233    0.72573    1.000
    C33      C        0.49897    0.06303    0.68403    1.000
    C34      C        0.44817    0.06633    0.66333    1.000
    C35      C        0.48167    0.09633    0.63743    1.000
    C36      C        0.56667    0.12283    0.63223    1.000
    C37      C        0.61787    0.11933    0.65293    1.000
    C38      C        0.58387    0.08933    0.67883    1.000
    H20      H        0.39197    0.04933    0.66683    1.000
    H21      H        0.44867    0.09933    0.62373    1.000
    H22      H        0.67407    0.13633    0.64943    1.000
    H23      H        0.61757    0.08733    0.69253    1.000
    C39      C        0.60227    0.15383    0.60533    1.000
    C40      C        0.56547    0.11213    0.57913    1.000
    N5       N        0.59867    0.14003    0.55423    1.000
    C41      C        0.67267    0.21263    0.55283    1.000
    N6       N        0.71567    0.25953    0.57443    1.000
    C42      C        0.68237    0.23163    0.59933    1.000
    H24      H        0.71037    0.26233    0.61473    1.000
    H25      H        0.69767    0.23333    0.53603    1.000
    H26      H        0.51457    0.06183    0.57883    1.000
    C43      C        0.44707    0.03383    0.66103    1.000
    C44      C        0.48067    0.06333    0.63503    1.000
    C45      C        0.61897    0.15203    0.65533    1.000
    C46      C        0.58497    0.12213    0.68123    1.000
    H27      H        0.39017    0.99433    0.66283    1.000
    H28      H        0.44667    0.04433    0.61983    1.000
    H29      H        0.67587    0.19133    0.65343    1.000
    H30      H        0.61937    0.14133    0.69653    1.000
    Cu3      Cu       0.84463    0.11377    0.18667    1.000
    C47      C        0.95873    0.21227    0.13877    1.000
    O11      O        0.94233    0.18047    0.16287    1.000
    O12      O        0.90203    0.21767    0.12517    1.000
    C48      C        0.13843    0.30567    0.08927    1.000
    C49      C        0.20093    0.29567    0.10247    1.000
    H31      H        0.25263    0.31367    0.09407    1.000
    C50      C        0.18523    0.25867    0.12837    1.000
    C51      C        0.10713    0.23067    0.14107    1.000
    H32      H        0.09683    0.20667    0.15817    1.000
    C52      C        0.04473    0.24077    0.12777    1.000
    C53      C        0.06043    0.27787    0.10187    1.000
    H33      H        0.01903    0.28467    0.09307    1.000
    C54      C        0.24083    0.23457    0.14577    1.000
    O13      O        0.20993    0.19767    0.16847    1.000
    O14      O        0.31303    0.24767    0.13787    1.000
    N7       N        0.17373    0.34707    0.06347    1.000
    C55      C        0.12833    0.36367    0.04557    1.000
    O15      O        0.05233    0.33567    0.04787    1.000
    H34      H        0.22683    0.36567    0.05907    1.000
    C56      C        0.16563    0.39637    0.01737    1.000
    C57      C        0.11483    0.39967    0.99667    1.000
    C58      C        0.14833    0.42967    0.97077    1.000
    C59      C        0.23333    0.45617    0.96557    1.000
    C60      C        0.28453    0.45267    0.98627    1.000
    C61      C        0.25053    0.42267    0.01217    1.000
    H35      H        0.05863    0.38267    0.00017    1.000
    H36      H        0.11533    0.43267    0.95707    1.000
    H37      H        0.34073    0.46967    0.98277    1.000
    H38      H        0.28423    0.42067    0.02587    1.000
    C62      C        0.26893    0.48717    0.93867    1.000
    C63      C        0.23213    0.44547    0.91247    1.000
    N8       N        0.26533    0.47337    0.88757    1.000
    C64      C        0.33933    0.54597    0.88617    1.000
    N9       N        0.38233    0.59287    0.90777    1.000
    C65      C        0.34903    0.56497    0.93267    1.000
    H39      H        0.37703    0.59567    0.94807    1.000
    H40      H        0.36433    0.56667    0.86937    1.000
    H41      H        0.18123    0.39517    0.91217    1.000
    C66      C        0.11373    0.36717    0.99437    1.000
    C67      C        0.14733    0.39667    0.96837    1.000
    C68      C        0.28563    0.48537    0.98867    1.000
    C69      C        0.25163    0.45547    0.01457    1.000
    H42      H        0.05683    0.32767    0.99617    1.000
    H43      H        0.11333    0.37767    0.95317    1.000
    H44      H        0.34253    0.52467    0.98677    1.000
    H45      H        0.28603    0.47467    0.02987    1.000
    Cu4      Cu       0.55290    0.06420    0.52000    1.000
    C70      C        0.45440    0.07980    0.47210    1.000
    O16      O        0.48620    0.09520    0.49620    1.000
    O17      O        0.44900    0.01770    0.45850    1.000
    C71      C        0.36100    0.16610    0.42260    1.000
    C72      C        0.37100    0.23860    0.43580    1.000
    H46      H        0.35300    0.27230    0.42740    1.000
    C73      C        0.40800    0.25990    0.46170    1.000
    C74      C        0.43600    0.20980    0.47440    1.000
    H47      H        0.46000    0.22350    0.49150    1.000
    C75      C        0.42590    0.13730    0.46110    1.000
    C76      C        0.38880    0.11590    0.43520    1.000
    H48      H        0.38200    0.06770    0.42640    1.000
    C77      C        0.43210    0.33960    0.47910    1.000
    O18      O        0.46900    0.34560    0.50180    1.000
    O19      O        0.41900    0.39870    0.47120    1.000
    N10      N        0.31960    0.16000    0.39680    1.000
    C78      C        0.30300    0.09800    0.37890    1.000
    O20      O        0.33100    0.05000    0.38120    1.000
    H49      H        0.30100    0.19450    0.39240    1.000
    C79      C        0.27030    0.10260    0.35070    1.000
    C80      C        0.26700    0.04850    0.33000    1.000
    C81      C        0.23700    0.05200    0.30410    1.000
    C82      C        0.21050    0.11050    0.29890    1.000
    C83      C        0.21400    0.16520    0.31960    1.000
    C84      C        0.24400    0.16120    0.34550    1.000
    H50      H        0.28400    0.00930    0.33350    1.000
    H51      H        0.23400    0.01600    0.29040    1.000
    H52      H        0.19700    0.20440    0.31610    1.000
    H53      H        0.24600    0.19690    0.35920    1.000
    C85      C        0.17950    0.11510    0.27200    1.000
    C86      C        0.22120    0.12000    0.24580    1.000
    N11      N        0.19330    0.12530    0.22090    1.000
    C87      C        0.12070    0.12670    0.21950    1.000
    N12      N        0.07380    0.12280    0.24110    1.000
    C88      C        0.10170    0.11740    0.26600    1.000
    H54      H        0.07100    0.11470    0.28140    1.000
    H55      H        0.10000    0.13100    0.20270    1.000
    H56      H        0.27150    0.11940    0.24550    1.000
    C89      C        0.29950    0.07990    0.32770    1.000
    C90      C        0.27000    0.08400    0.30170    1.000
    C91      C        0.18130    0.13360    0.32200    1.000
    C92      C        0.21120    0.12950    0.34790    1.000
    H57      H        0.33900    0.06250    0.32950    1.000
    H58      H        0.28900    0.06900    0.28650    1.000
    H59      H        0.14200    0.15120    0.32010    1.000
    H60      H        0.19200    0.14470    0.36320    1.000
    Cu5      Cu       0.21957    0.39753    0.85333    1.000
    C93      C        0.12107    0.41313    0.80543    1.000
    O21      O        0.15287    0.42853    0.82953    1.000
    O22      O        0.11567    0.35103    0.79183    1.000
    C94      C        0.02767    0.49943    0.75593    1.000
    C95      C        0.03767    0.57193    0.76913    1.000
    H61      H        0.01967    0.60563    0.76073    1.000
    C96      C        0.07467    0.59323    0.79503    1.000
    C97      C        0.10267    0.54313    0.80773    1.000
    H62      H        0.12667    0.55683    0.82483    1.000
    C98      C        0.09257    0.47063    0.79443    1.000
    C99      C        0.05547    0.44923    0.76853    1.000
    H63      H        0.04867    0.40103    0.75973    1.000
    C100     C        0.09877    0.67293    0.81243    1.000
    O23      O        0.13567    0.67893    0.83513    1.000
    O24      O        0.08567    0.73203    0.80453    1.000
    N13      N        0.98627    0.49333    0.73013    1.000
    C101     C        0.96967    0.43133    0.71223    1.000
    O25      O        0.99767    0.38333    0.71453    1.000
    H64      H        0.96767    0.52783    0.72573    1.000
    C102     C        0.93697    0.43593    0.68403    1.000
    C103     C        0.93367    0.38183    0.66333    1.000
    C104     C        0.90367    0.38533    0.63743    1.000
    C105     C        0.87717    0.44383    0.63223    1.000
    C106     C        0.88067    0.49853    0.65293    1.000
    C107     C        0.91067    0.49453    0.67883    1.000
    H65      H        0.95067    0.34263    0.66683    1.000
    H66      H        0.90067    0.34933    0.62373    1.000
    H67      H        0.86367    0.53773    0.64943    1.000
    H68      H        0.91267    0.53023    0.69253    1.000
    C108     C        0.84617    0.44843    0.60533    1.000
    C109     C        0.88787    0.45333    0.57913    1.000
    N14      N        0.85997    0.45863    0.55423    1.000
    C110     C        0.78737    0.46003    0.55283    1.000
    N15      N        0.74047    0.45613    0.57443    1.000
    C111     C        0.76837    0.45073    0.59933    1.000
    H69      H        0.73767    0.44803    0.61473    1.000
    H70      H        0.76667    0.46433    0.53603    1.000
    H71      H        0.93817    0.45273    0.57883    1.000
    C112     C        0.96617    0.41323    0.66103    1.000
    C113     C        0.93667    0.41733    0.63503    1.000
    C114     C        0.84797    0.46693    0.65533    1.000
    C115     C        0.87787    0.46283    0.68123    1.000
    H72      H        0.00567    0.39583    0.66283    1.000
    H73      H        0.95567    0.40233    0.61983    1.000
    H74      H        0.80867    0.48453    0.65343    1.000
    H75      H        0.85867    0.47803    0.69653    1.000
    Cu6      Cu       0.88623    0.73087    0.18667    1.000
    C116     C        0.78773    0.74647    0.13877    1.000
    O26      O        0.81953    0.76187    0.16287    1.000
    O27      O        0.78233    0.68437    0.12517    1.000
    C117     C        0.69433    0.83277    0.08927    1.000
    C118     C        0.70433    0.90527    0.10247    1.000
    H76      H        0.68633    0.93897    0.09407    1.000
    C119     C        0.74133    0.92657    0.12837    1.000
    C120     C        0.76933    0.87647    0.14107    1.000
    H77      H        0.79333    0.89017    0.15817    1.000
    C121     C        0.75923    0.80397    0.12777    1.000
    C122     C        0.72213    0.78257    0.10187    1.000
    H78      H        0.71533    0.73437    0.09307    1.000
    C123     C        0.76543    0.00627    0.14577    1.000
    O28      O        0.80233    0.01227    0.16847    1.000
    O29      O        0.75233    0.06537    0.13787    1.000
    N16      N        0.65293    0.82667    0.06347    1.000
    C124     C        0.63633    0.76467    0.04557    1.000
    O30      O        0.66433    0.71667    0.04787    1.000
    H79      H        0.63433    0.86117    0.05907    1.000
    C125     C        0.60363    0.76927    0.01737    1.000
    C126     C        0.60033    0.71517    0.99667    1.000
    C127     C        0.57033    0.71867    0.97077    1.000
    C128     C        0.54383    0.77717    0.96557    1.000
    C129     C        0.54733    0.83187    0.98627    1.000
    C130     C        0.57733    0.82787    0.01217    1.000
    H80      H        0.61733    0.67597    0.00017    1.000
    H81      H        0.56733    0.68267    0.95707    1.000
    H82      H        0.53033    0.87107    0.98277    1.000
    H83      H        0.57933    0.86357    0.02587    1.000
    C131     C        0.51283    0.78177    0.93867    1.000
    C132     C        0.55453    0.78667    0.91247    1.000
    N17      N        0.52663    0.79197    0.88757    1.000
    C133     C        0.45403    0.79337    0.88617    1.000
    N18      N        0.40713    0.78947    0.90777    1.000
    C134     C        0.43503    0.78407    0.93267    1.000
    H84      H        0.40433    0.78137    0.94807    1.000
    H85      H        0.43333    0.79767    0.86937    1.000
    H86      H        0.60483    0.78607    0.91217    1.000
    C135     C        0.63283    0.74657    0.99437    1.000
    C136     C        0.60333    0.75067    0.96837    1.000
    C137     C        0.51463    0.80027    0.98867    1.000
    C138     C        0.54453    0.79617    0.01457    1.000
    H87      H        0.67233    0.72917    0.99617    1.000
    H88      H        0.62233    0.73567    0.95317    1.000
    H89      H        0.47533    0.81787    0.98677    1.000
    H90      H        0.52533    0.81137    0.02987    1.000
    Cu7      Cu       0.93580    0.48870    0.52000    1.000
    C139     C        0.92020    0.37460    0.47210    1.000
    O31      O        0.90480    0.39100    0.49620    1.000
    O32      O        0.98230    0.43130    0.45850    1.000
    C140     C        0.83390    0.19490    0.42260    1.000
    C141     C        0.76140    0.13240    0.43580    1.000
    H91      H        0.72770    0.08070    0.42740    1.000
    C142     C        0.74010    0.14810    0.46170    1.000
    C143     C        0.79020    0.22620    0.47440    1.000
    H92      H        0.77650    0.23650    0.49150    1.000
    C144     C        0.86270    0.28860    0.46110    1.000
    C145     C        0.88410    0.27290    0.43520    1.000
    H93      H        0.93230    0.31430    0.42640    1.000
    C146     C        0.66040    0.09250    0.47910    1.000
    O33      O        0.65440    0.12340    0.50180    1.000
    O34      O        0.60130    0.02030    0.47120    1.000
    N19      N        0.84000    0.15960    0.39680    1.000
    C147     C        0.90200    0.20500    0.37890    1.000
    O35      O        0.95000    0.28100    0.38120    1.000
    H94      H        0.80550    0.10650    0.39240    1.000
    C148     C        0.89740    0.16770    0.35070    1.000
    C149     C        0.95150    0.21850    0.33000    1.000
    C150     C        0.94800    0.18500    0.30410    1.000
    C151     C        0.88950    0.10000    0.29890    1.000
    C152     C        0.83480    0.04880    0.31960    1.000
    C153     C        0.83880    0.08280    0.34550    1.000
    H95      H        0.99070    0.27470    0.33350    1.000
    H96      H        0.98400    0.21800    0.29040    1.000
    H97      H        0.79560    0.99260    0.31610    1.000
    H98      H        0.80310    0.04910    0.35920    1.000
    C154     C        0.88490    0.06440    0.27200    1.000
    C155     C        0.88000    0.10120    0.24580    1.000
    N20      N        0.87470    0.06800    0.22090    1.000
    C156     C        0.87330    0.99400    0.21950    1.000
    N21      N        0.87720    0.95100    0.24110    1.000
    C157     C        0.88260    0.98430    0.26600    1.000
    H99      H        0.88530    0.95630    0.28140    1.000
    H100     H        0.86900    0.96900    0.20270    1.000
    H101     H        0.88060    0.15210    0.24550    1.000
    C158     C        0.92010    0.21960    0.32770    1.000
    C159     C        0.91600    0.18600    0.30170    1.000
    C160     C        0.86640    0.04770    0.32200    1.000
    C161     C        0.87050    0.08170    0.34790    1.000
    H102     H        0.93750    0.27650    0.32950    1.000
    H103     H        0.93100    0.22000    0.28650    1.000
    H104     H        0.84880    0.99080    0.32010    1.000
    H105     H        0.85530    0.04730    0.36320    1.000
    Cu8      Cu       0.60247    0.82203    0.85333    1.000
    C162     C        0.58687    0.70793    0.80543    1.000
    O36      O        0.57147    0.72433    0.82953    1.000
    O37      O        0.64897    0.76463    0.79183    1.000
    C163     C        0.50057    0.52823    0.75593    1.000
    C164     C        0.42807    0.46573    0.76913    1.000
    H106     H        0.39437    0.41403    0.76073    1.000
    C165     C        0.40677    0.48143    0.79503    1.000
    C166     C        0.45687    0.55953    0.80773    1.000
    H107     H        0.44317    0.56983    0.82483    1.000
    C167     C        0.52937    0.62193    0.79443    1.000
    C168     C        0.55077    0.60623    0.76853    1.000
    H108     H        0.59897    0.64763    0.75973    1.000
    C169     C        0.32707    0.42583    0.81243    1.000
    O38      O        0.32107    0.45673    0.83513    1.000
    O39      O        0.26797    0.35363    0.80453    1.000
    N22      N        0.50667    0.49293    0.73013    1.000
    C170     C        0.56867    0.53833    0.71223    1.000
    O40      O        0.61667    0.61433    0.71453    1.000
    H109     H        0.47217    0.43983    0.72573    1.000
    C171     C        0.56407    0.50103    0.68403    1.000
    C172     C        0.61817    0.55183    0.66333    1.000
    C173     C        0.61467    0.51833    0.63743    1.000
    C174     C        0.55617    0.43333    0.63223    1.000
    C175     C        0.50147    0.38213    0.65293    1.000
    C176     C        0.50547    0.41613    0.67883    1.000
    H110     H        0.65737    0.60803    0.66683    1.000
    H111     H        0.65067    0.55133    0.62373    1.000
    H112     H        0.46227    0.32593    0.64943    1.000
    H113     H        0.46977    0.38243    0.69253    1.000
    C177     C        0.55157    0.39773    0.60533    1.000
    C178     C        0.54667    0.43453    0.57913    1.000
    N23      N        0.54137    0.40133    0.55423    1.000
    C179     C        0.53997    0.32733    0.55283    1.000
    N24      N        0.54387    0.28433    0.57443    1.000
    C180     C        0.54927    0.31763    0.59933    1.000
    H114     H        0.55197    0.28963    0.61473    1.000
    H115     H        0.53567    0.30233    0.53603    1.000
    H116     H        0.54727    0.48543    0.57883    1.000
    C181     C        0.58677    0.55293    0.66103    1.000
    C182     C        0.58267    0.51933    0.63503    1.000
    C183     C        0.53307    0.38103    0.65533    1.000
    C184     C        0.53717    0.41503    0.68123    1.000
    H117     H        0.60417    0.60983    0.66283    1.000
    H118     H        0.59767    0.55333    0.61983    1.000
    H119     H        0.51547    0.32413    0.65343    1.000
    H120     H        0.52197    0.38063    0.69653    1.000
    Cu9      Cu       0.26913    0.15537    0.18667    1.000
    C185     C        0.25353    0.04127    0.13877    1.000
    O41      O        0.23813    0.05767    0.16287    1.000
    O42      O        0.31563    0.09797    0.12517    1.000
    C186     C        0.16723    0.86157    0.08927    1.000
    C187     C        0.09473    0.79907    0.10247    1.000
    H121     H        0.06103    0.74737    0.09407    1.000
    C188     C        0.07343    0.81477    0.12837    1.000
    C189     C        0.12353    0.89287    0.14107    1.000
    H122     H        0.10983    0.90317    0.15817    1.000
    C190     C        0.19603    0.95527    0.12777    1.000
    C191     C        0.21743    0.93957    0.10187    1.000
    H123     H        0.26563    0.98097    0.09307    1.000
    C192     C        0.99373    0.75917    0.14577    1.000
    O43      O        0.98773    0.79007    0.16847    1.000
    O44      O        0.93463    0.68697    0.13787    1.000
    N25      N        0.17333    0.82627    0.06347    1.000
    C193     C        0.23533    0.87167    0.04557    1.000
    O45      O        0.28333    0.94767    0.04787    1.000
    H124     H        0.13883    0.77317    0.05907    1.000
    C194     C        0.23073    0.83437    0.01737    1.000
    C195     C        0.28483    0.88517    0.99667    1.000
    C196     C        0.28133    0.85167    0.97077    1.000
    C197     C        0.22283    0.76667    0.96557    1.000
    C198     C        0.16813    0.71547    0.98627    1.000
    C199     C        0.17213    0.74947    0.01217    1.000
    H125     H        0.32403    0.94137    0.00017    1.000
    H126     H        0.31733    0.88467    0.95707    1.000
    H127     H        0.12893    0.65927    0.98277    1.000
    H128     H        0.13643    0.71577    0.02587    1.000
    C200     C        0.21823    0.73107    0.93867    1.000
    C201     C        0.21333    0.76787    0.91247    1.000
    N26      N        0.20803    0.73467    0.88757    1.000
    C202     C        0.20663    0.66067    0.88617    1.000
    N27      N        0.21053    0.61767    0.90777    1.000
    C203     C        0.21593    0.65097    0.93267    1.000
    H129     H        0.21863    0.62297    0.94807    1.000
    H130     H        0.20233    0.63567    0.86937    1.000
    H131     H        0.21393    0.81877    0.91217    1.000
    C204     C        0.25343    0.88627    0.99437    1.000
    C205     C        0.24933    0.85267    0.96837    1.000
    C206     C        0.19973    0.71437    0.98867    1.000
    C207     C        0.20383    0.74837    0.01457    1.000
    H132     H        0.27083    0.94317    0.99617    1.000
    H133     H        0.26433    0.88667    0.95317    1.000
    H134     H        0.18213    0.65747    0.98677    1.000
    H135     H        0.18863    0.71397    0.02987    1.000
    Cu10     Cu       0.44710    0.51130    0.48000    1.000
    C208     C        0.54560    0.62540    0.52790    1.000
    O46      O        0.51380    0.60900    0.50380    1.000
    O47      O        0.55100    0.56870    0.54150    1.000
    C209     C        0.63900    0.80510    0.57740    1.000
    C210     C        0.62900    0.86760    0.56420    1.000
    H136     H        0.64700    0.91930    0.57260    1.000
    C211     C        0.59200    0.85190    0.53830    1.000
    C212     C        0.56400    0.77380    0.52560    1.000
    H137     H        0.54000    0.76350    0.50850    1.000
    C213     C        0.57410    0.71140    0.53890    1.000
    C214     C        0.61120    0.72710    0.56480    1.000
    H138     H        0.61800    0.68570    0.57360    1.000
    C215     C        0.56790    0.90750    0.52090    1.000
    O48      O        0.53100    0.87660    0.49820    1.000
    O49      O        0.58100    0.97970    0.52880    1.000
    N28      N        0.68040    0.84040    0.60320    1.000
    C216     C        0.69700    0.79500    0.62110    1.000
    O50      O        0.66900    0.71900    0.61880    1.000
    H139     H        0.69900    0.89350    0.60760    1.000
    C217     C        0.72970    0.83230    0.64930    1.000
    C218     C        0.73300    0.78150    0.67000    1.000
    C219     C        0.76300    0.81500    0.69590    1.000
    C220     C        0.78950    0.90000    0.70110    1.000
    C221     C        0.78600    0.95120    0.68040    1.000
    C222     C        0.75600    0.91720    0.65450    1.000
    H140     H        0.71600    0.72530    0.66650    1.000
    H141     H        0.76600    0.78200    0.70960    1.000
    H142     H        0.80300    0.00740    0.68390    1.000
    H143     H        0.75400    0.95090    0.64080    1.000
    C223     C        0.82050    0.93560    0.72800    1.000
    C224     C        0.77880    0.89880    0.75420    1.000
    N29      N        0.80670    0.93200    0.77910    1.000
    C225     C        0.87930    0.00600    0.78050    1.000
    N30      N        0.92620    0.04900    0.75890    1.000
    C226     C        0.89830    0.01570    0.73400    1.000
    H144     H        0.92900    0.04370    0.71860    1.000
    H145     H        0.90000    0.03100    0.79730    1.000
    H146     H        0.72850    0.84790    0.75450    1.000
    C227     C        0.70050    0.78040    0.67230    1.000
    C228     C        0.73000    0.81400    0.69830    1.000
    C229     C        0.81870    0.95230    0.67800    1.000
    C230     C        0.78880    0.91830    0.65210    1.000
    H147     H        0.66100    0.72350    0.67050    1.000
    H148     H        0.71100    0.78000    0.71350    1.000
    H149     H        0.85800    0.00920    0.67990    1.000
    H150     H        0.80800    0.95270    0.63680    1.000
    Cu11     Cu       0.11377    0.84463    0.81333    1.000
    C231     C        0.21227    0.95873    0.86123    1.000
    O51      O        0.18047    0.94233    0.83713    1.000
    O52      O        0.21767    0.90203    0.87483    1.000
    C232     C        0.30567    0.13843    0.91073    1.000
    C233     C        0.29567    0.20093    0.89753    1.000
    H151     H        0.31367    0.25263    0.90593    1.000
    C234     C        0.25867    0.18523    0.87163    1.000
    C235     C        0.23067    0.10713    0.85893    1.000
    H152     H        0.20667    0.09683    0.84183    1.000
    C236     C        0.24077    0.04473    0.87223    1.000
    C237     C        0.27787    0.06043    0.89813    1.000
    H153     H        0.28467    0.01903    0.90693    1.000
    C238     C        0.23457    0.24083    0.85423    1.000
    O53      O        0.19767    0.20993    0.83153    1.000
    O54      O        0.24767    0.31303    0.86213    1.000
    N31      N        0.34707    0.17373    0.93653    1.000
    C239     C        0.36367    0.12833    0.95443    1.000
    O55      O        0.33567    0.05233    0.95213    1.000
    H154     H        0.36567    0.22683    0.94093    1.000
    C240     C        0.39637    0.16563    0.98263    1.000
    C241     C        0.39967    0.11483    0.00333    1.000
    C242     C        0.42967    0.14833    0.02923    1.000
    C243     C        0.45617    0.23333    0.03443    1.000
    C244     C        0.45267    0.28453    0.01373    1.000
    C245     C        0.42267    0.25053    0.98783    1.000
    H155     H        0.38267    0.05863    0.99983    1.000
    H156     H        0.43267    0.11533    0.04293    1.000
    H157     H        0.46967    0.34073    0.01723    1.000
    H158     H        0.42067    0.28423    0.97413    1.000
    C246     C        0.48717    0.26893    0.06133    1.000
    C247     C        0.44547    0.23213    0.08753    1.000
    N32      N        0.47337    0.26533    0.11243    1.000
    C248     C        0.54597    0.33933    0.11383    1.000
    N33      N        0.59287    0.38233    0.09223    1.000
    C249     C        0.56497    0.34903    0.06733    1.000
    H159     H        0.59567    0.37703    0.05193    1.000
    H160     H        0.56667    0.36433    0.13063    1.000
    H161     H        0.39517    0.18123    0.08783    1.000
    C250     C        0.36717    0.11373    0.00563    1.000
    C251     C        0.39667    0.14733    0.03163    1.000
    C252     C        0.48537    0.28563    0.01133    1.000
    C253     C        0.45547    0.25163    0.98543    1.000
    H162     H        0.32767    0.05683    0.00383    1.000
    H163     H        0.37767    0.11333    0.04683    1.000
    H164     H        0.52467    0.34253    0.01323    1.000
    H165     H        0.47467    0.28603    0.97013    1.000
    Cu12     Cu       0.78043    0.17797    0.14667    1.000
    C254     C        0.87893    0.29207    0.19457    1.000
    O56      O        0.84713    0.27567    0.17047    1.000
    O57      O        0.88433    0.23537    0.20817    1.000
    C255     C        0.97233    0.47177    0.24407    1.000
    C256     C        0.96233    0.53427    0.23087    1.000
    H166     H        0.98033    0.58597    0.23927    1.000
    C257     C        0.92533    0.51857    0.20497    1.000
    C258     C        0.89733    0.44047    0.19227    1.000
    H167     H        0.87333    0.43017    0.17517    1.000
    C259     C        0.90743    0.37807    0.20557    1.000
    C260     C        0.94453    0.39377    0.23147    1.000
    H168     H        0.95133    0.35237    0.24027    1.000
    C261     C        0.90123    0.57417    0.18757    1.000
    O58      O        0.86433    0.54327    0.16487    1.000
    O59      O        0.91433    0.64637    0.19547    1.000
    N34      N        0.01373    0.50707    0.26987    1.000
    C262     C        0.03033    0.46167    0.28777    1.000
    O60      O        0.00233    0.38567    0.28547    1.000
    H169     H        0.03233    0.56017    0.27427    1.000
    C263     C        0.06303    0.49897    0.31597    1.000
    C264     C        0.06633    0.44817    0.33667    1.000
    C265     C        0.09633    0.48167    0.36257    1.000
    C266     C        0.12283    0.56667    0.36777    1.000
    C267     C        0.11933    0.61787    0.34707    1.000
    C268     C        0.08933    0.58387    0.32117    1.000
    H170     H        0.04933    0.39197    0.33317    1.000
    H171     H        0.09933    0.44867    0.37627    1.000
    H172     H        0.13633    0.67407    0.35057    1.000
    H173     H        0.08733    0.61757    0.30747    1.000
    C269     C        0.15383    0.60227    0.39467    1.000
    C270     C        0.11213    0.56547    0.42087    1.000
    N35      N        0.14003    0.59867    0.44577    1.000
    C271     C        0.21263    0.67267    0.44717    1.000
    N36      N        0.25953    0.71567    0.42557    1.000
    C272     C        0.23163    0.68237    0.40067    1.000
    H174     H        0.26233    0.71037    0.38527    1.000
    H175     H        0.23333    0.69767    0.46397    1.000
    H176     H        0.06183    0.51457    0.42117    1.000
    C273     C        0.03383    0.44707    0.33897    1.000
    C274     C        0.06333    0.48067    0.36497    1.000
    C275     C        0.15203    0.61897    0.34467    1.000
    C276     C        0.12213    0.58497    0.31877    1.000
    H177     H        0.99433    0.39017    0.33717    1.000
    H178     H        0.04433    0.44667    0.38017    1.000
    H179     H        0.19133    0.67587    0.34657    1.000
    H180     H        0.14133    0.61937    0.30347    1.000
    Cu13     Cu       0.06420    0.55290    0.48000    1.000
    C277     C        0.07980    0.45440    0.52790    1.000
    O61      O        0.09520    0.48620    0.50380    1.000
    O62      O        0.01770    0.44900    0.54150    1.000
    C278     C        0.16610    0.36100    0.57740    1.000
    C279     C        0.23860    0.37100    0.56420    1.000
    H181     H        0.27230    0.35300    0.57260    1.000
    C280     C        0.25990    0.40800    0.53830    1.000
    C281     C        0.20980    0.43600    0.52560    1.000
    H182     H        0.22350    0.46000    0.50850    1.000
    C282     C        0.13730    0.42590    0.53890    1.000
    C283     C        0.11590    0.38880    0.56480    1.000
    H183     H        0.06770    0.38200    0.57360    1.000
    C284     C        0.33960    0.43210    0.52090    1.000
    O63      O        0.34560    0.46900    0.49820    1.000
    O64      O        0.39870    0.41900    0.52880    1.000
    N37      N        0.16000    0.31960    0.60320    1.000
    C285     C        0.09800    0.30300    0.62110    1.000
    O65      O        0.05000    0.33100    0.61880    1.000
    H184     H        0.19450    0.30100    0.60760    1.000
    C286     C        0.10260    0.27030    0.64930    1.000
    C287     C        0.04850    0.26700    0.67000    1.000
    C288     C        0.05200    0.23700    0.69590    1.000
    C289     C        0.11050    0.21050    0.70110    1.000
    C290     C        0.16520    0.21400    0.68040    1.000
    C291     C        0.16120    0.24400    0.65450    1.000
    H185     H        0.00930    0.28400    0.66650    1.000
    H186     H        0.01600    0.23400    0.70960    1.000
    H187     H        0.20440    0.19700    0.68390    1.000
    H188     H        0.19690    0.24600    0.64080    1.000
    C292     C        0.11510    0.17950    0.72800    1.000
    C293     C        0.12000    0.22120    0.75420    1.000
    N38      N        0.12530    0.19330    0.77910    1.000
    C294     C        0.12670    0.12070    0.78050    1.000
    N39      N        0.12280    0.07380    0.75890    1.000
    C295     C        0.11740    0.10170    0.73400    1.000
    H189     H        0.11470    0.07100    0.71860    1.000
    H190     H        0.13100    0.10000    0.79730    1.000
    H191     H        0.11940    0.27150    0.75450    1.000
    C296     C        0.07990    0.29950    0.67230    1.000
    C297     C        0.08400    0.27000    0.69830    1.000
    C298     C        0.13360    0.18130    0.67800    1.000
    C299     C        0.12950    0.21120    0.65210    1.000
    H192     H        0.06250    0.33900    0.67050    1.000
    H193     H        0.06900    0.28900    0.71350    1.000
    H194     H        0.15120    0.14200    0.67990    1.000
    H195     H        0.14470    0.19200    0.63680    1.000
    Cu14     Cu       0.73087    0.88623    0.81333    1.000
    C300     C        0.74647    0.78773    0.86123    1.000
    O66      O        0.76187    0.81953    0.83713    1.000
    O67      O        0.68437    0.78233    0.87483    1.000
    C301     C        0.83277    0.69433    0.91073    1.000
    C302     C        0.90527    0.70433    0.89753    1.000
    H196     H        0.93897    0.68633    0.90593    1.000
    C303     C        0.92657    0.74133    0.87163    1.000
    C304     C        0.87647    0.76933    0.85893    1.000
    H197     H        0.89017    0.79333    0.84183    1.000
    C305     C        0.80397    0.75923    0.87223    1.000
    C306     C        0.78257    0.72213    0.89813    1.000
    H198     H        0.73437    0.71533    0.90693    1.000
    C307     C        0.00627    0.76543    0.85423    1.000
    O68      O        0.01227    0.80233    0.83153    1.000
    O69      O        0.06537    0.75233    0.86213    1.000
    N40      N        0.82667    0.65293    0.93653    1.000
    C308     C        0.76467    0.63633    0.95443    1.000
    O70      O        0.71667    0.66433    0.95213    1.000
    H199     H        0.86117    0.63433    0.94093    1.000
    C309     C        0.76927    0.60363    0.98263    1.000
    C310     C        0.71517    0.60033    0.00333    1.000
    C311     C        0.71867    0.57033    0.02923    1.000
    C312     C        0.77717    0.54383    0.03443    1.000
    C313     C        0.83187    0.54733    0.01373    1.000
    C314     C        0.82787    0.57733    0.98783    1.000
    H200     H        0.67597    0.61733    0.99983    1.000
    H201     H        0.68267    0.56733    0.04293    1.000
    H202     H        0.87107    0.53033    0.01723    1.000
    H203     H        0.86357    0.57933    0.97413    1.000
    C315     C        0.78177    0.51283    0.06133    1.000
    C316     C        0.78667    0.55453    0.08753    1.000
    N41      N        0.79197    0.52663    0.11243    1.000
    C317     C        0.79337    0.45403    0.11383    1.000
    N42      N        0.78947    0.40713    0.09223    1.000
    C318     C        0.78407    0.43503    0.06733    1.000
    H204     H        0.78137    0.40433    0.05193    1.000
    H205     H        0.79767    0.43333    0.13063    1.000
    H206     H        0.78607    0.60483    0.08783    1.000
    C319     C        0.74657    0.63283    0.00563    1.000
    C320     C        0.75067    0.60333    0.03163    1.000
    C321     C        0.80027    0.51463    0.01133    1.000
    C322     C        0.79617    0.54453    0.98543    1.000
    H207     H        0.72917    0.67233    0.00383    1.000
    H208     H        0.73567    0.62233    0.04683    1.000
    H209     H        0.81787    0.47533    0.01323    1.000
    H210     H        0.81137    0.52533    0.97013    1.000
    Cu15     Cu       0.39753    0.21957    0.14667    1.000
    C323     C        0.41313    0.12107    0.19457    1.000
    O71      O        0.42853    0.15287    0.17047    1.000
    O72      O        0.35103    0.11567    0.20817    1.000
    C324     C        0.49943    0.02767    0.24407    1.000
    C325     C        0.57193    0.03767    0.23087    1.000
    H211     H        0.60563    0.01967    0.23927    1.000
    C326     C        0.59323    0.07467    0.20497    1.000
    C327     C        0.54313    0.10267    0.19227    1.000
    H212     H        0.55683    0.12667    0.17517    1.000
    C328     C        0.47063    0.09257    0.20557    1.000
    C329     C        0.44923    0.05547    0.23147    1.000
    H213     H        0.40103    0.04867    0.24027    1.000
    C330     C        0.67293    0.09877    0.18757    1.000
    O73      O        0.67893    0.13567    0.16487    1.000
    O74      O        0.73203    0.08567    0.19547    1.000
    N43      N        0.49333    0.98627    0.26987    1.000
    C331     C        0.43133    0.96967    0.28777    1.000
    O75      O        0.38333    0.99767    0.28547    1.000
    H214     H        0.52783    0.96767    0.27427    1.000
    C332     C        0.43593    0.93697    0.31597    1.000
    C333     C        0.38183    0.93367    0.33667    1.000
    C334     C        0.38533    0.90367    0.36257    1.000
    C335     C        0.44383    0.87717    0.36777    1.000
    C336     C        0.49853    0.88067    0.34707    1.000
    C337     C        0.49453    0.91067    0.32117    1.000
    H215     H        0.34263    0.95067    0.33317    1.000
    H216     H        0.34933    0.90067    0.37627    1.000
    H217     H        0.53773    0.86367    0.35057    1.000
    H218     H        0.53023    0.91267    0.30747    1.000
    C338     C        0.44843    0.84617    0.39467    1.000
    C339     C        0.45333    0.88787    0.42087    1.000
    N44      N        0.45863    0.85997    0.44577    1.000
    C340     C        0.46003    0.78737    0.44717    1.000
    N45      N        0.45613    0.74047    0.42557    1.000
    C341     C        0.45073    0.76837    0.40067    1.000
    H219     H        0.44803    0.73767    0.38527    1.000
    H220     H        0.46433    0.76667    0.46397    1.000
    H221     H        0.45273    0.93817    0.42117    1.000
    C342     C        0.41323    0.96617    0.33897    1.000
    C343     C        0.41733    0.93667    0.36497    1.000
    C344     C        0.46693    0.84797    0.34467    1.000
    C345     C        0.46283    0.87787    0.31877    1.000
    H222     H        0.39583    0.00567    0.33717    1.000
    H223     H        0.40233    0.95567    0.38017    1.000
    H224     H        0.48453    0.80867    0.34657    1.000
    H225     H        0.47803    0.85867    0.30347    1.000
    Cu16     Cu       0.48870    0.93580    0.48000    1.000
    C346     C        0.37460    0.92020    0.52790    1.000
    O76      O        0.39100    0.90480    0.50380    1.000
    O77      O        0.43130    0.98230    0.54150    1.000
    C347     C        0.19490    0.83390    0.57740    1.000
    C348     C        0.13240    0.76140    0.56420    1.000
    H226     H        0.08070    0.72770    0.57260    1.000
    C349     C        0.14810    0.74010    0.53830    1.000
    C350     C        0.22620    0.79020    0.52560    1.000
    H227     H        0.23650    0.77650    0.50850    1.000
    C351     C        0.28860    0.86270    0.53890    1.000
    C352     C        0.27290    0.88410    0.56480    1.000
    H228     H        0.31430    0.93230    0.57360    1.000
    C353     C        0.09250    0.66040    0.52090    1.000
    O78      O        0.12340    0.65440    0.49820    1.000
    O79      O        0.02030    0.60130    0.52880    1.000
    N46      N        0.15960    0.84000    0.60320    1.000
    C354     C        0.20500    0.90200    0.62110    1.000
    O80      O        0.28100    0.95000    0.61880    1.000
    H229     H        0.10650    0.80550    0.60760    1.000
    C355     C        0.16770    0.89740    0.64930    1.000
    C356     C        0.21850    0.95150    0.67000    1.000
    C357     C        0.18500    0.94800    0.69590    1.000
    C358     C        0.10000    0.88950    0.70110    1.000
    C359     C        0.04880    0.83480    0.68040    1.000
    C360     C        0.08280    0.83880    0.65450    1.000
    H230     H        0.27470    0.99070    0.66650    1.000
    H231     H        0.21800    0.98400    0.70960    1.000
    H232     H        0.99260    0.79560    0.68390    1.000
    H233     H        0.04910    0.80310    0.64080    1.000
    C361     C        0.06440    0.88490    0.72800    1.000
    C362     C        0.10120    0.88000    0.75420    1.000
    N47      N        0.06800    0.87470    0.77910    1.000
    C363     C        0.99400    0.87330    0.78050    1.000
    N48      N        0.95100    0.87720    0.75890    1.000
    C364     C        0.98430    0.88260    0.73400    1.000
    H234     H        0.95630    0.88530    0.71860    1.000
    H235     H        0.96900    0.86900    0.79730    1.000
    H236     H        0.15210    0.88060    0.75450    1.000
    C365     C        0.21960    0.92010    0.67230    1.000
    C366     C        0.18600    0.91600    0.69830    1.000
    C367     C        0.04770    0.86640    0.67800    1.000
    C368     C        0.08170    0.87050    0.65210    1.000
    H237     H        0.27650    0.93750    0.67050    1.000
    H238     H        0.22000    0.93100    0.71350    1.000
    H239     H        0.99080    0.84880    0.67990    1.000
    H240     H        0.04730    0.85530    0.63680    1.000
    Cu17     Cu       0.15537    0.26913    0.81333    1.000
    C369     C        0.04127    0.25353    0.86123    1.000
    O81      O        0.05767    0.23813    0.83713    1.000
    O82      O        0.09797    0.31563    0.87483    1.000
    C370     C        0.86157    0.16723    0.91073    1.000
    C371     C        0.79907    0.09473    0.89753    1.000
    H241     H        0.74737    0.06103    0.90593    1.000
    C372     C        0.81477    0.07343    0.87163    1.000
    C373     C        0.89287    0.12353    0.85893    1.000
    H242     H        0.90317    0.10983    0.84183    1.000
    C374     C        0.95527    0.19603    0.87223    1.000
    C375     C        0.93957    0.21743    0.89813    1.000
    H243     H        0.98097    0.26563    0.90693    1.000
    C376     C        0.75917    0.99373    0.85423    1.000
    O83      O        0.79007    0.98773    0.83153    1.000
    O84      O        0.68697    0.93463    0.86213    1.000
    N49      N        0.82627    0.17333    0.93653    1.000
    C377     C        0.87167    0.23533    0.95443    1.000
    O85      O        0.94767    0.28333    0.95213    1.000
    H244     H        0.77317    0.13883    0.94093    1.000
    C378     C        0.83437    0.23073    0.98263    1.000
    C379     C        0.88517    0.28483    0.00333    1.000
    C380     C        0.85167    0.28133    0.02923    1.000
    C381     C        0.76667    0.22283    0.03443    1.000
    C382     C        0.71547    0.16813    0.01373    1.000
    C383     C        0.74947    0.17213    0.98783    1.000
    H245     H        0.94137    0.32403    0.99983    1.000
    H246     H        0.88467    0.31733    0.04293    1.000
    H247     H        0.65927    0.12893    0.01723    1.000
    H248     H        0.71577    0.13643    0.97413    1.000
    C384     C        0.73107    0.21823    0.06133    1.000
    C385     C        0.76787    0.21333    0.08753    1.000
    N50      N        0.73467    0.20803    0.11243    1.000
    C386     C        0.66067    0.20663    0.11383    1.000
    N51      N        0.61767    0.21053    0.09223    1.000
    C387     C        0.65097    0.21593    0.06733    1.000
    H249     H        0.62297    0.21863    0.05193    1.000
    H250     H        0.63567    0.20233    0.13063    1.000
    H251     H        0.81877    0.21393    0.08783    1.000
    C388     C        0.88627    0.25343    0.00563    1.000
    C389     C        0.85267    0.24933    0.03163    1.000
    C390     C        0.71437    0.19973    0.01133    1.000
    C391     C        0.74837    0.20383    0.98543    1.000
    H252     H        0.94317    0.27083    0.00383    1.000
    H253     H        0.88667    0.26433    0.04683    1.000
    H254     H        0.65747    0.18213    0.01323    1.000
    H255     H        0.71397    0.18863    0.97013    1.000
    Cu18     Cu       0.82203    0.60247    0.14667    1.000
    C392     C        0.70793    0.58687    0.19457    1.000
    O86      O        0.72433    0.57147    0.17047    1.000
    O87      O        0.76463    0.64897    0.20817    1.000
    C393     C        0.52823    0.50057    0.24407    1.000
    C394     C        0.46573    0.42807    0.23087    1.000
    H256     H        0.41403    0.39437    0.23927    1.000
    C395     C        0.48143    0.40677    0.20497    1.000
    C396     C        0.55953    0.45687    0.19227    1.000
    H257     H        0.56983    0.44317    0.17517    1.000
    C397     C        0.62193    0.52937    0.20557    1.000
    C398     C        0.60623    0.55077    0.23147    1.000
    H258     H        0.64763    0.59897    0.24027    1.000
    C399     C        0.42583    0.32707    0.18757    1.000
    O88      O        0.45673    0.32107    0.16487    1.000
    O89      O        0.35363    0.26797    0.19547    1.000
    N52      N        0.49293    0.50667    0.26987    1.000
    C400     C        0.53833    0.56867    0.28777    1.000
    O90      O        0.61433    0.61667    0.28547    1.000
    H259     H        0.43983    0.47217    0.27427    1.000
    C401     C        0.50103    0.56407    0.31597    1.000
    C402     C        0.55183    0.61817    0.33667    1.000
    C403     C        0.51833    0.61467    0.36257    1.000
    C404     C        0.43333    0.55617    0.36777    1.000
    C405     C        0.38213    0.50147    0.34707    1.000
    C406     C        0.41613    0.50547    0.32117    1.000
    H260     H        0.60803    0.65737    0.33317    1.000
    H261     H        0.55133    0.65067    0.37627    1.000
    H262     H        0.32593    0.46227    0.35057    1.000
    H263     H        0.38243    0.46977    0.30747    1.000
    C407     C        0.39773    0.55157    0.39467    1.000
    C408     C        0.43453    0.54667    0.42087    1.000
    N53      N        0.40133    0.54137    0.44577    1.000
    C409     C        0.32733    0.53997    0.44717    1.000
    N54      N        0.28433    0.54387    0.42557    1.000
    C410     C        0.31763    0.54927    0.40067    1.000
    H264     H        0.28963    0.55197    0.38527    1.000
    H265     H        0.30233    0.53567    0.46397    1.000
    H266     H        0.48543    0.54727    0.42117    1.000
    C411     C        0.55293    0.58677    0.33897    1.000
    C412     C        0.51933    0.58267    0.36497    1.000
    C413     C        0.38103    0.53307    0.34467    1.000
    C414     C        0.41503    0.53717    0.31877    1.000
    H267     H        0.60983    0.60417    0.33717    1.000
    H268     H        0.55333    0.59767    0.38017    1.000
    H269     H        0.32413    0.51547    0.34657    1.000
    H270     H        0.38063    0.52197    0.30347    1.000
