# CIF file generated by openbabel 3.1.0, see https://openbabel.org
data_I
_chemical_name_common 'image0'
_cell_length_a 8.3936
_cell_length_b 10.5347
_cell_length_c 17.4093
_cell_angle_alpha 99.174
_cell_angle_beta 97.13
_cell_angle_gamma 100.348
_space_group_name_H-M_alt 'P 1'
_space_group_name_Hall 'P 1'
loop_
    _symmetry_equiv_pos_as_xyz
    x,y,z
loop_
    _atom_site_label
    _atom_site_type_symbol
    _atom_site_fract_x
    _atom_site_fract_y
    _atom_site_fract_z
    _atom_site_occupancy
    C1       C        0.97490    0.55750    0.30462    1.000
    C2       C        0.97230    0.42730    0.32890    1.000
    C3       C        0.06370    0.42000    0.39990    1.000
    H1       H        0.12870    0.49570    0.43140    1.000
    C4       C        0.05810    0.30000    0.42380    1.000
    H2       H        0.11760    0.29560    0.47170    1.000
    C5       C        0.96380    0.18640    0.37620    1.000
    H3       H        0.96250    0.10590    0.39180    1.000
    C6       C        0.87160    0.19240    0.30550    1.000
    C7       C        0.87680    0.31370    0.28250    1.000
    H4       H        0.81510    0.31840    0.23520    1.000
    C8       C        0.75650    0.07450    0.25720    1.000
    C9       C        0.83820    0.00360    0.85932    1.000
    C10      C        0.87230    0.90660    0.91074    1.000
    C11      C        0.99700    0.83780    0.89980    1.000
    H5       H        0.05980    0.85090    0.86030    1.000
    C12      C        0.02690    0.74960    0.94830    1.000
    H6       H        0.10770    0.70130    0.94000    1.000
    C13      C        0.93740    0.73290    0.00880    1.000
    H7       H        0.96010    0.67500    0.04180    1.000
    C14      C        0.81490    0.80160    0.02047    1.000
    C15      C        0.78060    0.88730    0.97033    1.000
    H8       H        0.69570    0.93180    0.97690    1.000
    C16      C        0.72240    0.79000    0.08796    1.000
    C17      C        0.68900    0.00080    0.63713    1.000
    C18      C        0.59910    0.90540    0.56475    1.000
    C19      C        0.43650    0.84620    0.56320    1.000
    H9       H        0.38730    0.86230    0.60780    1.000
    C20      C        0.34730    0.76370    0.49610    1.000
    H10      H        0.23830    0.72500    0.49540    1.000
    C21      C        0.42040    0.73910    0.43050    1.000
    H11      H        0.35970    0.68450    0.38510    1.000
    C22      C        0.58300    0.79440    0.43108    1.000
    C23      C        0.65950    0.76910    0.35878    1.000
    C24      C        0.67270    0.87870    0.49879    1.000
    H12      H        0.78190    0.91690    0.49950    1.000
    C25      C        0.21450    0.62770    0.16140    1.000
    H13      H        0.13320    0.55170    0.14750    1.000
    Eu1      Eu       0.47769    0.86133    0.20330    1.000
    Eu2      Eu       0.96636    0.80744    0.26231    1.000
    O1       O        0.07070    0.65700    0.34339    1.000
    O2       O        0.87690    0.56410    0.24341    1.000
    O3       O        0.63850    0.08860    0.21063    1.000
    O4       O        0.77420    0.95990    0.26770    1.000
    O5       O        0.93820    0.03330    0.81391    1.000
    O6       O        0.71050    0.04890    0.86598    1.000
    O7       O        0.59350    0.83350    0.08689    1.000
    O8       O        0.77680    0.73530    0.14286    1.000
    O9       O        0.83850    0.04720    0.64084    1.000
    O10      O        0.60540    0.03060    0.69045    1.000
    O11      O        0.56520    0.73100    0.29226    1.000
    O12      O        0.81200    0.78590    0.36658    1.000
    O13      O        0.34850    0.62670    0.13763    1.000
    O14      O        0.18440    0.72500    0.20253    1.000
    C26      C        0.02510    0.44250    0.69538    1.000
    C27      C        0.02770    0.57270    0.67110    1.000
    C28      C        0.93630    0.58000    0.60010    1.000
    H14      H        0.87130    0.50430    0.56860    1.000
    C29      C        0.94190    0.70000    0.57620    1.000
    H15      H        0.88240    0.70440    0.52830    1.000
    C30      C        0.03620    0.81360    0.62380    1.000
    H16      H        0.03750    0.89410    0.60820    1.000
    C31      C        0.12840    0.80760    0.69450    1.000
    C32      C        0.12320    0.68630    0.71750    1.000
    H17      H        0.18490    0.68160    0.76480    1.000
    C33      C        0.24350    0.92550    0.74280    1.000
    C34      C        0.16180    0.99640    0.14068    1.000
    C35      C        0.12770    0.09340    0.08926    1.000
    C36      C        0.00300    0.16220    0.10020    1.000
    H18      H        0.94020    0.14910    0.13970    1.000
    C37      C        0.97310    0.25040    0.05170    1.000
    H19      H        0.89230    0.29870    0.06000    1.000
    C38      C        0.06260    0.26710    0.99120    1.000
    H20      H        0.03990    0.32500    0.95820    1.000
    C39      C        0.18510    0.19840    0.97953    1.000
    C40      C        0.21940    0.11270    0.02967    1.000
    H21      H        0.30430    0.06820    0.02310    1.000
    C41      C        0.27760    0.21000    0.91204    1.000
    C42      C        0.31100    0.99920    0.36287    1.000
    C43      C        0.40090    0.09460    0.43525    1.000
    C44      C        0.56350    0.15380    0.43680    1.000
    H22      H        0.61270    0.13770    0.39220    1.000
    C45      C        0.65270    0.23630    0.50390    1.000
    H23      H        0.76170    0.27500    0.50460    1.000
    C46      C        0.57960    0.26090    0.56950    1.000
    H24      H        0.64030    0.31550    0.61490    1.000
    C47      C        0.41700    0.20560    0.56892    1.000
    C48      C        0.34050    0.23090    0.64122    1.000
    C49      C        0.32730    0.12130    0.50121    1.000
    H25      H        0.21810    0.08310    0.50050    1.000
    C50      C        0.78550    0.37230    0.83860    1.000
    H26      H        0.86680    0.44830    0.85250    1.000
    Eu3      Eu       0.52231    0.13867    0.79671    1.000
    Eu4      Eu       0.03364    0.19256    0.73769    1.000
    O15      O        0.92930    0.34300    0.65661    1.000
    O16      O        0.12310    0.43590    0.75659    1.000
    O17      O        0.36150    0.91140    0.78937    1.000
    O18      O        0.22580    0.04010    0.73230    1.000
    O19      O        0.06180    0.96670    0.18609    1.000
    O20      O        0.28950    0.95110    0.13402    1.000
    O21      O        0.40650    0.16650    0.91311    1.000
    O22      O        0.22320    0.26470    0.85714    1.000
    O23      O        0.16150    0.95280    0.35916    1.000
    O24      O        0.39460    0.96940    0.30955    1.000
    O25      O        0.43480    0.26900    0.70774    1.000
    O26      O        0.18800    0.21410    0.63342    1.000
    O27      O        0.65150    0.37330    0.86237    1.000
    O28      O        0.81560    0.27500    0.79747    1.000
