# CIF file generated by openbabel 3.1.0, see https://openbabel.org
data_I
_chemical_name_common 'ETEKAQ01_clean5b'
_cell_length_a 10.414
_cell_length_b 10.954
_cell_length_c 12.432
_cell_angle_alpha 104.286
_cell_angle_beta 106.961
_cell_angle_gamma 98.027
_space_group_name_H-M_alt 'P 1'
_space_group_name_Hall 'P 1'
loop_
    _symmetry_equiv_pos_as_xyz
    x,y,z
loop_
    _atom_site_label
    _atom_site_type_symbol
    _atom_site_fract_x
    _atom_site_fract_y
    _atom_site_fract_z
    _atom_site_occupancy
    Gd1      Gd       0.89352    0.92423    0.80621    1.000
    Gd2      Gd       0.09433    0.06687    0.19436    1.000
    H1       H        0.30459    0.50616    0.19119    1.000
    H2       H        0.61238    0.05058    0.86156    1.000
    H3       H        0.78231    0.31828    0.88323    1.000
    H4       H        0.57622    0.92102    0.24595    1.000
    H5       H        0.74062    0.63843    0.90202    1.000
    H6       H        0.37396    0.96142    0.13593    1.000
    H7       H        0.19879    0.66303    0.13389    1.000
    H8       H        0.28776    0.13493    0.81650    1.000
    C1       C        0.63400    0.51093    0.48721    1.000
    C2       C        0.46630    0.58626    0.57266    1.000
    C3       C        0.70577    0.71909    0.65903    1.000
    C4       C        0.56444    0.97131    0.09713    1.000
    C5       C        0.56093    0.02886    0.92105    1.000
    C6       C        0.98789    0.21548    0.99206    1.000
    C7       C        0.99057    0.35723    0.00444    1.000
    C8       C        0.10772    0.45784    0.07661    1.000
    C9       C        0.87461    0.39232    0.93811    1.000
    C10      C        0.78579    0.99638    0.04765    1.000
    C11      C        0.63348    0.99296    0.01807    1.000
    C12      C        0.60153    0.60457    0.57095    1.000
    C13      C        0.36459    0.47707    0.49483    1.000
    C14      C        0.53363    0.39943    0.41326    1.000
    C15      C        0.29199    0.26826    0.33051    1.000
    C16      C        0.42525    0.04640    0.90338    1.000
    C17      C        0.42625    0.98411    0.07730    1.000
    C18      C        0.99931    0.76220    0.01391    1.000
    C19      C        0.99172    0.62259    0.01162    1.000
    C20      C        0.87282    0.52183    0.94195    1.000
    C21      C        0.10694    0.58815    0.07975    1.000
    C22      C        0.20087    0.01529    0.95051    1.000
    C23      C        0.35391    0.02127    0.98079    1.000
    C24      C        0.39857    0.38249    0.41462    1.000
    O1       O        0.86364    0.03675    0.15389    1.000
    O2       O        0.85028    0.97246    0.97512    1.000
    O3       O        0.89455    0.13057    0.90310    1.000
    O4       O        0.08694    0.18113    0.05924    1.000
    O5       O        0.83498    0.72725    0.68317    1.000
    O6       O        0.67452    0.81792    0.71744    1.000
    O7       O        0.22622    0.42796    0.14238    1.000
    O8       O        0.63331    0.93467    0.19459    1.000
    O9       O        0.76173    0.52645    0.47060    1.000
    O10      O        0.12389    0.97859    0.84392    1.000
    O11      O        0.13347    0.03535    0.02202    1.000
    O12      O        0.06439    0.85027    0.11345    1.000
    O13      O        0.94197    0.78515    0.91607    1.000
    O14      O        0.16479    0.27159    0.29774    1.000
    O15      O        0.31742    0.15884    0.28642    1.000
    O16      O        0.74881    0.54550    0.87835    1.000
    O17      O        0.36730    0.09370    0.80994    1.000
    O18      O        0.23051    0.46033    0.49883    1.000
    H9       H        0.43966    0.65660    0.63575    1.000
    H10      H        0.55992    0.32862    0.35026    1.000
    H11      H        0.81054    0.61950    0.48929    1.000
    H12      H        0.21682    0.53324    0.55972    1.000
