# CIF file generated by openbabel 3.1.0, see https://openbabel.org
data_I
_chemical_name_common 'QUDJOP_clean'
_cell_length_a 10.101
_cell_length_b 10.2184
_cell_length_c 21.058
_cell_angle_alpha 90
_cell_angle_beta 90
_cell_angle_gamma 106.098
_space_group_name_H-M_alt 'P 1'
_space_group_name_Hall 'P 1'
loop_
    _symmetry_equiv_pos_as_xyz
    x,y,z
loop_
    _atom_site_label
    _atom_site_type_symbol
    _atom_site_fract_x
    _atom_site_fract_y
    _atom_site_fract_z
    _atom_site_occupancy
    Zn1      Zn       0.89952    0.37689    0.21265    1.000
    Zn2      Zn       0.60048    0.12311    0.71265    1.000
    Zn3      Zn       0.10048    0.62311    0.78735    1.000
    Zn4      Zn       0.39952    0.87689    0.28735    1.000
    H1       H        0.93470    0.65880    0.02360    1.000
    H2       H        0.20960    0.03710    0.12910    1.000
    H3       H        0.86110    0.81060    0.94690    1.000
    H4       H        0.89170    0.28460    0.07780    1.000
    H5       H        0.74210    0.15190    0.00600    1.000
    H6       H        0.46640    0.03760    0.14630    1.000
    H7       H        0.62010    0.17820    0.21440    1.000
    H8       H        0.56530    0.84120    0.52360    1.000
    H9       H        0.29040    0.46290    0.62910    1.000
    H10      H        0.63890    0.68940    0.44690    1.000
    H11      H        0.60830    0.21540    0.57780    1.000
    H12      H        0.75790    0.34810    0.50600    1.000
    H13      H        0.03360    0.46240    0.64630    1.000
    H14      H        0.87990    0.32180    0.71440    1.000
    H15      H        0.06530    0.34120    0.97640    1.000
    H16      H        0.79040    0.96290    0.87090    1.000
    H17      H        0.13890    0.18940    0.05310    1.000
    H18      H        0.10830    0.71540    0.92220    1.000
    H19      H        0.25790    0.84810    0.99400    1.000
    H20      H        0.53360    0.96240    0.85370    1.000
    H21      H        0.37990    0.82180    0.78560    1.000
    H22      H        0.43470    0.15880    0.47640    1.000
    H23      H        0.70960    0.53710    0.37090    1.000
    H24      H        0.36110    0.31060    0.55310    1.000
    H25      H        0.39170    0.78460    0.42220    1.000
    H26      H        0.24210    0.65190    0.49400    1.000
    H27      H        0.96640    0.53760    0.35370    1.000
    H28      H        0.12010    0.67820    0.28560    1.000
    C1       C        0.03830    0.57540    0.12264    1.000
    C2       C        0.06250    0.71710    0.09691    1.000
    C3       C        0.98860    0.73500    0.04459    1.000
    C4       C        0.99210    0.86580    0.02169    1.000
    C5       C        0.07670    0.98380    0.05381    1.000
    C6       C        0.15410    0.96210    0.10776    1.000
    C7       C        0.14890    0.83580    0.12865    1.000
    C8       C        0.91650    0.88580    0.96806    1.000
    C9       C        0.24060    0.81660    0.18229    1.000
    C10      C        0.80470    0.23500    0.09148    1.000
    C11      C        0.71600    0.15520    0.04821    1.000
    C12      C        0.58710    0.07990    0.06884    1.000
    C13      C        0.55200    0.08800    0.13151    1.000
    C14      C        0.64510    0.17170    0.17223    1.000
    C15      C        0.46170    0.92460    0.62264    1.000
    C16      C        0.43750    0.78290    0.59691    1.000
    C17      C        0.51140    0.76500    0.54459    1.000
    C18      C        0.50790    0.63420    0.52169    1.000
    C19      C        0.42330    0.51620    0.55381    1.000
    C20      C        0.34590    0.53790    0.60776    1.000
    C21      C        0.35110    0.66420    0.62865    1.000
    C22      C        0.58350    0.61420    0.46806    1.000
    C23      C        0.25940    0.68340    0.68229    1.000
    C24      C        0.69530    0.26500    0.59148    1.000
    C25      C        0.78400    0.34480    0.54821    1.000
    C26      C        0.91290    0.42010    0.56884    1.000
    C27      C        0.94800    0.41200    0.63151    1.000
    C28      C        0.85490    0.32830    0.67223    1.000
    C29      C        0.96170    0.42460    0.87736    1.000
    C30      C        0.93750    0.28290    0.90309    1.000
    C31      C        0.01140    0.26500    0.95541    1.000
    C32      C        0.00790    0.13420    0.97831    1.000
    C33      C        0.92330    0.01620    0.94619    1.000
    C34      C        0.84590    0.03790    0.89224    1.000
    C35      C        0.85110    0.16420    0.87135    1.000
    C36      C        0.08350    0.11420    0.03194    1.000
    C37      C        0.75940    0.18340    0.81771    1.000
    C38      C        0.19530    0.76500    0.90852    1.000
    C39      C        0.28400    0.84480    0.95179    1.000
    C40      C        0.41290    0.92010    0.93116    1.000
    C41      C        0.44800    0.91200    0.86849    1.000
    C42      C        0.35490    0.82830    0.82777    1.000
    C43      C        0.53830    0.07540    0.37736    1.000
    C44      C        0.56250    0.21710    0.40309    1.000
    C45      C        0.48860    0.23500    0.45541    1.000
    C46      C        0.49210    0.36580    0.47831    1.000
    C47      C        0.57670    0.48380    0.44619    1.000
    C48      C        0.65410    0.46210    0.39224    1.000
    C49      C        0.64890    0.33580    0.37135    1.000
    C50      C        0.41650    0.38580    0.53194    1.000
    C51      C        0.74060    0.31660    0.31771    1.000
    C52      C        0.30470    0.73500    0.40852    1.000
    C53      C        0.21600    0.65520    0.45179    1.000
    C54      C        0.08710    0.57990    0.43116    1.000
    C55      C        0.05200    0.58800    0.36849    1.000
    C56      C        0.14510    0.67170    0.32777    1.000
    N1       N        0.77080    0.24410    0.15270    1.000
    N2       N        0.48620    0.99130    0.02861    1.000
    N3       N        0.72920    0.25590    0.65270    1.000
    N4       N        0.01380    0.50870    0.52861    1.000
    N5       N        0.22920    0.75590    0.84730    1.000
    N6       N        0.51380    0.00870    0.97139    1.000
    N7       N        0.27080    0.74410    0.34730    1.000
    N8       N        0.98620    0.49130    0.47139    1.000
    O1       O        0.97590    0.55810    0.17714    1.000
    O2       O        0.06790    0.48500    0.09188    1.000
    O3       O        0.27530    0.71060    0.18679    1.000
    O4       O        0.28230    0.91800    0.22017    1.000
    O5       O        0.52410    0.94190    0.67714    1.000
    O6       O        0.43210    0.01500    0.59188    1.000
    O7       O        0.22470    0.78940    0.68679    1.000
    O8       O        0.21770    0.58200    0.72017    1.000
    O9       O        0.02410    0.44190    0.82286    1.000
    O10      O        0.93210    0.51500    0.90812    1.000
    O11      O        0.72470    0.28940    0.81321    1.000
    O12      O        0.71770    0.08200    0.77983    1.000
    O13      O        0.47590    0.05810    0.32286    1.000
    O14      O        0.56790    0.98500    0.40812    1.000
    O15      O        0.77530    0.21060    0.31321    1.000
    O16      O        0.78230    0.41800    0.27983    1.000
