# CIF file generated by openbabel 3.1.0, see https://openbabel.org
data_I
_chemical_name_common 'image0'
_cell_length_a 11.506
_cell_length_b 6.638
_cell_length_c 17.148
_cell_angle_alpha 90
_cell_angle_beta 96.05
_cell_angle_gamma 90
_space_group_name_H-M_alt 'P 1'
_space_group_name_Hall 'P 1'
loop_
    _symmetry_equiv_pos_as_xyz
    x,y,z
loop_
    _atom_site_label
    _atom_site_type_symbol
    _atom_site_fract_x
    _atom_site_fract_y
    _atom_site_fract_z
    _atom_site_occupancy
    Zr1      Zr       0.40212    0.07149    0.13798    1.000
    Zr2      Zr       0.14752    0.57948    0.27762    1.000
    P1       P        0.14088    0.07440    0.22681    1.000
    P2       P        0.41307    0.57001    0.19047    1.000
    P3       P        0.66979    0.09740    0.04984    1.000
    F1       F        0.07060    0.58620    0.16850    1.000
    O1       O        0.15590    0.26670    0.27693    1.000
    O2       O        0.01820    0.07290    0.18150    1.000
    O3       O        0.23410    0.06690    0.16870    1.000
    O4       O        0.15450    0.89070    0.28280    1.000
    O5       O        0.41220    0.75410    0.13562    1.000
    O6       O        0.52540    0.56440    0.24660    1.000
    O7       O        0.30830    0.58330    0.23790    1.000
    O8       O        0.40350    0.37920    0.13810    1.000
    O9       O        0.56350    0.07380    0.09410    1.000
    O10      O        0.66800    0.95260    0.98030    1.000
    O11      O        0.78240    0.06960    0.10360    1.000
    O12      O        0.67390    0.32070    0.01810    1.000
    Zr3      Zr       0.59788    0.57149    0.36202    1.000
    Zr4      Zr       0.85248    0.07948    0.22238    1.000
    P4       P        0.85912    0.57440    0.27319    1.000
    P5       P        0.58693    0.07001    0.30953    1.000
    P6       P        0.33021    0.59740    0.45016    1.000
    F2       F        0.92940    0.08620    0.33150    1.000
    O13      O        0.84410    0.76670    0.22307    1.000
    O14      O        0.98180    0.57290    0.31850    1.000
    O15      O        0.76590    0.56690    0.33130    1.000
    O16      O        0.84550    0.39070    0.21720    1.000
    O17      O        0.58780    0.25410    0.36438    1.000
    O18      O        0.47460    0.06440    0.25340    1.000
    O19      O        0.69170    0.08330    0.26210    1.000
    O20      O        0.59650    0.87920    0.36190    1.000
    O21      O        0.43650    0.57380    0.40590    1.000
    O22      O        0.33200    0.45260    0.51970    1.000
    O23      O        0.21760    0.56960    0.39640    1.000
    O24      O        0.32610    0.82070    0.48190    1.000
    Zr5      Zr       0.59788    0.92851    0.86202    1.000
    Zr6      Zr       0.85248    0.42052    0.72238    1.000
    P7       P        0.85912    0.92560    0.77319    1.000
    P8       P        0.58693    0.42999    0.80953    1.000
    P9       P        0.33021    0.90260    0.95016    1.000
    F3       F        0.92940    0.41380    0.83150    1.000
    O25      O        0.84410    0.73330    0.72307    1.000
    O26      O        0.98180    0.92710    0.81850    1.000
    O27      O        0.76590    0.93310    0.83130    1.000
    O28      O        0.84550    0.10930    0.71720    1.000
    O29      O        0.58780    0.24590    0.86438    1.000
    O30      O        0.47460    0.43560    0.75340    1.000
    O31      O        0.69170    0.41670    0.76210    1.000
    O32      O        0.59650    0.62080    0.86190    1.000
    O33      O        0.43650    0.92620    0.90590    1.000
    O34      O        0.33200    0.04740    0.01970    1.000
    O35      O        0.21760    0.93040    0.89640    1.000
    O36      O        0.32610    0.67930    0.98190    1.000
    Zr7      Zr       0.40212    0.42851    0.63798    1.000
    Zr8      Zr       0.14752    0.92052    0.77762    1.000
    P10      P        0.14088    0.42560    0.72681    1.000
    P11      P        0.41307    0.92999    0.69047    1.000
    P12      P        0.66979    0.40260    0.54984    1.000
    F4       F        0.07060    0.91380    0.66850    1.000
    O37      O        0.15590    0.23330    0.77693    1.000
    O38      O        0.01820    0.42710    0.68150    1.000
    O39      O        0.23410    0.43310    0.66870    1.000
    O40      O        0.15450    0.60930    0.78280    1.000
    O41      O        0.41220    0.74590    0.63562    1.000
    O42      O        0.52540    0.93560    0.74660    1.000
    O43      O        0.30830    0.91670    0.73790    1.000
    O44      O        0.40350    0.12080    0.63810    1.000
    O45      O        0.56350    0.42620    0.59410    1.000
    O46      O        0.66800    0.54740    0.48030    1.000
    O47      O        0.78240    0.43040    0.60360    1.000
    O48      O        0.67390    0.17930    0.51810    1.000
