# CIF file generated by openbabel 3.1.0, see https://openbabel.org
data_I
_chemical_name_common 'SADMUH_SL'
_cell_length_a 15.9623
_cell_length_b 6.9351
_cell_length_c 14.3919
_cell_angle_alpha 90
_cell_angle_beta 90
_cell_angle_gamma 90
_space_group_name_H-M_alt 'P 1'
_space_group_name_Hall 'P 1'
loop_
    _symmetry_equiv_pos_as_xyz
    x,y,z
loop_
    _atom_site_label
    _atom_site_type_symbol
    _atom_site_fract_x
    _atom_site_fract_y
    _atom_site_fract_z
    _atom_site_occupancy
    H1       H        0.69490    0.04530    0.69510    1.000
    C2       C        0.71770    0.92290    0.71790    1.000
    O3       O        0.58730    0.90860    0.58800    1.000
    H4       H        0.50000    0.75000    0.36862    1.000
    H5       H        0.19490    0.54530    0.19510    1.000
    C6       C        0.21770    0.42290    0.21790    1.000
    O7       O        0.08730    0.40860    0.08800    1.000
    H8       H        0.00000    0.25000    0.86862    1.000
    H9       H        0.30510    0.45470    0.69510    1.000
    C10      C        0.28230    0.57710    0.71790    1.000
    O11      O        0.41270    0.59140    0.58800    1.000
    H13      H        0.80510    0.95470    0.19510    1.000
    C14      C        0.78230    0.07710    0.21790    1.000
    O15      O        0.91270    0.09140    0.08800    1.000
    H17      H        0.30510    0.54530    0.30490    1.000
    C18      C        0.28230    0.42290    0.28210    1.000
    O19      O        0.41270    0.40860    0.41200    1.000
    H20      H        0.50000    0.25000    0.63138    1.000
    H21      H        0.80510    0.04530    0.80490    1.000
    C22      C        0.78230    0.92290    0.78210    1.000
    O23      O        0.91270    0.90860    0.91200    1.000
    H24      H        0.00000    0.75000    0.13138    1.000
    H25      H        0.69490    0.95470    0.30490    1.000
    C26      C        0.71770    0.07710    0.28210    1.000
    O27      O        0.58730    0.09140    0.41200    1.000
    H29      H        0.19490    0.45470    0.80490    1.000
    C30      C        0.21770    0.57710    0.78210    1.000
    O31      O        0.08730    0.59140    0.91200    1.000
    H33      H        0.30510    0.95470    0.30490    1.000
    C34      C        0.28230    0.07710    0.28210    1.000
    O35      O        0.41270    0.09140    0.41200    1.000
    H37      H        0.80510    0.45470    0.80490    1.000
    C38      C        0.78230    0.57710    0.78210    1.000
    O39      O        0.91270    0.59140    0.91200    1.000
    H41      H        0.69490    0.54530    0.30490    1.000
    C42      C        0.71770    0.42290    0.28210    1.000
    O43      O        0.58730    0.40860    0.41200    1.000
    H45      H        0.19490    0.04530    0.80490    1.000
    C46      C        0.21770    0.92290    0.78210    1.000
    O47      O        0.08730    0.90860    0.91200    1.000
    H49      H        0.69490    0.45470    0.69510    1.000
    C50      C        0.71770    0.57710    0.71790    1.000
    O51      O        0.58730    0.59140    0.58800    1.000
    H53      H        0.19490    0.95470    0.19510    1.000
    C54      C        0.21770    0.07710    0.21790    1.000
    O55      O        0.08730    0.09140    0.08800    1.000
    H57      H        0.30510    0.04530    0.69510    1.000
    C58      C        0.28230    0.92290    0.71790    1.000
    O59      O        0.41270    0.90860    0.58800    1.000
    H61      H        0.80510    0.54530    0.19510    1.000
    C62      C        0.78230    0.42290    0.21790    1.000
    O63      O        0.91270    0.40860    0.08800    1.000
    Fe65     Fe       0.50000    0.00000    0.50000    1.000
    Fe66     Fe       0.00000    0.50000    0.00000    1.000
    Fe67     Fe       0.50000    0.50000    0.50000    1.000
    Fe68     Fe       0.00000    0.00000    0.00000    1.000
    C69      C        0.68540    0.75000    0.68570    1.000
    C70      C        0.61690    0.75000    0.61750    1.000
    C71      C        0.18540    0.25000    0.18570    1.000
    C72      C        0.11690    0.25000    0.11750    1.000
    C73      C        0.31460    0.75000    0.68570    1.000
    C74      C        0.38310    0.75000    0.61750    1.000
    C75      C        0.81460    0.25000    0.18570    1.000
    C76      C        0.88310    0.25000    0.11750    1.000
    C77      C        0.31460    0.25000    0.31430    1.000
    C78      C        0.38310    0.25000    0.38250    1.000
    C79      C        0.81460    0.75000    0.81430    1.000
    C80      C        0.88310    0.75000    0.88250    1.000
    C81      C        0.68540    0.25000    0.31430    1.000
    C82      C        0.61690    0.25000    0.38250    1.000
    C83      C        0.18540    0.75000    0.81430    1.000
    C84      C        0.11690    0.75000    0.88250    1.000
    O85      O        0.00000    0.25000    0.93810    1.000
    O86      O        0.50000    0.75000    0.43810    1.000
    O87      O        0.00000    0.75000    0.06190    1.000
    O88      O        0.50000    0.25000    0.56190    1.000
