# CIF file generated by openbabel 3.1.0, see https://openbabel.org
data_I
_chemical_name_common 'image0'
_cell_length_a 33.6474
_cell_length_b 13.9237
_cell_length_c 23.3437
_cell_angle_alpha 90
_cell_angle_beta 112.495
_cell_angle_gamma 90
_space_group_name_H-M_alt 'P 1'
_space_group_name_Hall 'P 1'
loop_
    _symmetry_equiv_pos_as_xyz
    x,y,z
loop_
    _atom_site_label
    _atom_site_type_symbol
    _atom_site_fract_x
    _atom_site_fract_y
    _atom_site_fract_z
    _atom_site_occupancy
    Ag1      Ag       0.15400    0.13611    0.29129    1.000
    N1       N        0.21781    0.15160    0.37218    1.000
    C1       C        0.24861    0.15020    0.41503    1.000
    C2       C        0.28719    0.14480    0.46933    1.000
    C3       C        0.30777    0.05850    0.48719    1.000
    C4       C        0.30454    0.22880    0.50359    1.000
    C5       C        0.34603    0.05140    0.53993    1.000
    H1       H        0.29620    0.00380    0.46400    1.000
    H2       H        0.29100    0.28770    0.49090    1.000
    C6       C        0.34188    0.22290    0.55611    1.000
    C7       C        0.36346    0.13510    0.57456    1.000
    H3       H        0.35970    0.99250    0.55190    1.000
    H4       H        0.35280    0.27780    0.57950    1.000
    C8       C        0.40529    0.13260    0.62837    1.000
    C9       C        0.44030    0.09300    0.61987    1.000
    C10      C        0.40549    0.17150    0.68477    1.000
    C11      C        0.44235    0.05460    0.56390    1.000
    N2       N        0.48120    0.07950    0.66832    1.000
    C12      C        0.36966    0.18250    0.70276    1.000
    N3       N        0.44217    0.20134    0.73319    1.000
    C13      C        0.48350    0.02260    0.57783    1.000
    H5       H        0.41990    0.05210    0.52530    1.000
    C14      C        0.50572    0.03840    0.64226    1.000
    H6       H        0.34110    0.16830    0.67880    1.000
    C15      C        0.38558    0.21820    0.76258    1.000
    C16      C        0.43029    0.23090    0.77969    1.000
    H7       H        0.49460    0.99580    0.55060    1.000
    H8       H        0.53440    0.02180    0.66390    1.000
    H9       H        0.36990    0.23140    0.78690    1.000
    C17      C        0.37893    0.50640    0.68207    1.000
    C18      C        0.46224    0.27630    0.83370    1.000
    C19      C        0.38125    0.48050    0.62582    1.000
    H10      H        0.35600    0.53650    0.68760    1.000
    C20      C        0.41825    0.47790    0.72912    1.000
    C21      C        0.46370    0.28250    0.89528    1.000
    N4       N        0.49673    0.31864    0.82857    1.000
    C22      C        0.42235    0.43700    0.64047    1.000
    H11      H        0.36020    0.48970    0.58650    1.000
    H12      H        0.42520    0.48670    0.77140    1.000
    N5       N        0.44408    0.43670    0.70462    1.000
    H13      H        0.44310    0.26010    0.90950    1.000
    C23      C        0.50121    0.32770    0.92934    1.000
    C24      C        0.52185    0.35360    0.88826    1.000
    C25      C        0.43965    0.40460    0.59746    1.000
    H14      H        0.51160    0.33960    0.97170    1.000
    C26      C        0.41617    0.43290    0.53187    1.000
    C27      C        0.41085    0.53020    0.51731    1.000
    C28      C        0.40022    0.36600    0.48446    1.000
    H15      H        0.42060    0.57480    0.54940    1.000
    C29      C        0.39173    0.56330    0.45716    1.000
    C30      C        0.37966    0.39740    0.42337    1.000
    H16      H        0.40320    0.30070    0.49330    1.000
    H17      H        0.38930    0.62870    0.44840    1.000
    C31      C        0.37619    0.49530    0.41005    1.000
    H18      H        0.36830    0.35290    0.39150    1.000
    C32      C        0.35823    0.52840    0.34729    1.000
    Ag2      Ag       0.65400    0.63611    0.29129    1.000
    N6       N        0.71781    0.65160    0.37218    1.000
    C33      C        0.74861    0.65020    0.41503    1.000
    C34      C        0.78719    0.64480    0.46933    1.000
    C35      C        0.80777    0.55850    0.48719    1.000
    C36      C        0.80454    0.72880    0.50359    1.000
    C37      C        0.84603    0.55140    0.53993    1.000
    H19      H        0.79620    0.50380    0.46400    1.000
    H20      H        0.79100    0.78770    0.49090    1.000
    C38      C        0.84188    0.72290    0.55611    1.000
    C39      C        0.86346    0.63510    0.57456    1.000
    H21      H        0.85970    0.49250    0.55190    1.000
    H22      H        0.85280    0.77780    0.57950    1.000
    C40      C        0.90529    0.63260    0.62837    1.000
    C41      C        0.94030    0.59300    0.61987    1.000
    C42      C        0.90549    0.67150    0.68477    1.000
    C43      C        0.94235    0.55460    0.56390    1.000
    N7       N        0.98120    0.57950    0.66832    1.000
    C44      C        0.86966    0.68250    0.70276    1.000
    N8       N        0.94217    0.70134    0.73319    1.000
    C45      C        0.98350    0.52260    0.57783    1.000
    H23      H        0.91990    0.55210    0.52530    1.000
    C46      C        0.00572    0.53840    0.64226    1.000
    H24      H        0.84110    0.66830    0.67880    1.000
    C47      C        0.88558    0.71820    0.76258    1.000
    C48      C        0.93029    0.73090    0.77969    1.000
    H25      H        0.99460    0.49580    0.55060    1.000
    H26      H        0.03440    0.52180    0.66390    1.000
    H27      H        0.86990    0.73140    0.78690    1.000
    C49      C        0.87893    0.00640    0.68207    1.000
    C50      C        0.96224    0.77630    0.83370    1.000
    C51      C        0.88125    0.98050    0.62582    1.000
    H28      H        0.85600    0.03650    0.68760    1.000
    C52      C        0.91825    0.97790    0.72912    1.000
    C53      C        0.96370    0.78250    0.89528    1.000
    N9       N        0.99673    0.81864    0.82857    1.000
    C54      C        0.92235    0.93700    0.64047    1.000
    H29      H        0.86020    0.98970    0.58650    1.000
    H30      H        0.92520    0.98670    0.77140    1.000
    N10      N        0.94408    0.93670    0.70462    1.000
    H31      H        0.94310    0.76010    0.90950    1.000
    C55      C        0.00121    0.82770    0.92934    1.000
    C56      C        0.02185    0.85360    0.88826    1.000
    C57      C        0.93965    0.90460    0.59746    1.000
    H32      H        0.01160    0.83960    0.97170    1.000
    C58      C        0.91617    0.93290    0.53187    1.000
    C59      C        0.91085    0.03020    0.51731    1.000
    C60      C        0.90022    0.86600    0.48446    1.000
    H33      H        0.92060    0.07480    0.54940    1.000
    C61      C        0.89173    0.06330    0.45716    1.000
    C62      C        0.87966    0.89740    0.42337    1.000
    H34      H        0.90320    0.80070    0.49330    1.000
    H35      H        0.88930    0.12870    0.44840    1.000
    C63      C        0.87619    0.99530    0.41005    1.000
    H36      H        0.86830    0.85290    0.39150    1.000
    C64      C        0.85823    0.02840    0.34729    1.000
    Ag3      Ag       0.84600    0.13611    0.20871    1.000
    N11      N        0.78219    0.15160    0.12782    1.000
    C65      C        0.75139    0.15020    0.08497    1.000
    C66      C        0.71281    0.14480    0.03067    1.000
    C67      C        0.69223    0.05850    0.01281    1.000
    C68      C        0.69546    0.22880    0.99641    1.000
    C69      C        0.65397    0.05140    0.96007    1.000
    H37      H        0.70380    0.00380    0.03600    1.000
    H38      H        0.70900    0.28770    0.00910    1.000
    C70      C        0.65812    0.22290    0.94389    1.000
    C71      C        0.63654    0.13510    0.92544    1.000
    H39      H        0.64030    0.99250    0.94810    1.000
    H40      H        0.64720    0.27780    0.92050    1.000
    C72      C        0.59471    0.13260    0.87163    1.000
    C73      C        0.55970    0.09300    0.88013    1.000
    C74      C        0.59451    0.17150    0.81523    1.000
    C75      C        0.55765    0.05460    0.93610    1.000
    N12      N        0.51880    0.07950    0.83168    1.000
    C76      C        0.63034    0.18250    0.79724    1.000
    N13      N        0.55783    0.20134    0.76681    1.000
    C77      C        0.51650    0.02260    0.92217    1.000
    H41      H        0.58010    0.05210    0.97470    1.000
    C78      C        0.49428    0.03840    0.85774    1.000
    H42      H        0.65890    0.16830    0.82120    1.000
    C79      C        0.61442    0.21820    0.73742    1.000
    C80      C        0.56971    0.23090    0.72031    1.000
    H43      H        0.50540    0.99580    0.94940    1.000
    H44      H        0.46560    0.02180    0.83610    1.000
    H45      H        0.63010    0.23140    0.71310    1.000
    C81      C        0.62107    0.50640    0.81793    1.000
    C82      C        0.53776    0.27630    0.66630    1.000
    C83      C        0.61875    0.48050    0.87418    1.000
    H46      H        0.64400    0.53650    0.81240    1.000
    C84      C        0.58175    0.47790    0.77088    1.000
    C85      C        0.53630    0.28250    0.60472    1.000
    N14      N        0.50327    0.31864    0.67143    1.000
    C86      C        0.57765    0.43700    0.85953    1.000
    H47      H        0.63980    0.48970    0.91350    1.000
    H48      H        0.57480    0.48670    0.72860    1.000
    N15      N        0.55592    0.43670    0.79538    1.000
    H49      H        0.55690    0.26010    0.59050    1.000
    C87      C        0.49879    0.32770    0.57066    1.000
    C88      C        0.47815    0.35360    0.61174    1.000
    C89      C        0.56035    0.40460    0.90254    1.000
    H50      H        0.48840    0.33960    0.52830    1.000
    C90      C        0.58383    0.43290    0.96813    1.000
    C91      C        0.58915    0.53020    0.98269    1.000
    C92      C        0.59978    0.36600    0.01554    1.000
    H51      H        0.57940    0.57480    0.95060    1.000
    C93      C        0.60827    0.56330    0.04284    1.000
    C94      C        0.62034    0.39740    0.07663    1.000
    H52      H        0.59680    0.30070    0.00670    1.000
    H53      H        0.61070    0.62870    0.05160    1.000
    C95      C        0.62381    0.49530    0.08995    1.000
    H54      H        0.63170    0.35290    0.10850    1.000
    C96      C        0.64177    0.52840    0.15271    1.000
    Ag4      Ag       0.34600    0.63611    0.20871    1.000
    N16      N        0.28219    0.65160    0.12782    1.000
    C97      C        0.25139    0.65020    0.08497    1.000
    C98      C        0.21281    0.64480    0.03067    1.000
    C99      C        0.19223    0.55850    0.01281    1.000
    C100     C        0.19546    0.72880    0.99641    1.000
    C101     C        0.15397    0.55140    0.96007    1.000
    H55      H        0.20380    0.50380    0.03600    1.000
    H56      H        0.20900    0.78770    0.00910    1.000
    C102     C        0.15812    0.72290    0.94389    1.000
    C103     C        0.13654    0.63510    0.92544    1.000
    H57      H        0.14030    0.49250    0.94810    1.000
    H58      H        0.14720    0.77780    0.92050    1.000
    C104     C        0.09471    0.63260    0.87163    1.000
    C105     C        0.05970    0.59300    0.88013    1.000
    C106     C        0.09451    0.67150    0.81523    1.000
    C107     C        0.05765    0.55460    0.93610    1.000
    N17      N        0.01880    0.57950    0.83168    1.000
    C108     C        0.13034    0.68250    0.79724    1.000
    N18      N        0.05783    0.70134    0.76681    1.000
    C109     C        0.01650    0.52260    0.92217    1.000
    H59      H        0.08010    0.55210    0.97470    1.000
    C110     C        0.99428    0.53840    0.85774    1.000
    H60      H        0.15890    0.66830    0.82120    1.000
    C111     C        0.11442    0.71820    0.73742    1.000
    C112     C        0.06971    0.73090    0.72031    1.000
    H61      H        0.00540    0.49580    0.94940    1.000
    H62      H        0.96560    0.52180    0.83610    1.000
    H63      H        0.13010    0.73140    0.71310    1.000
    C113     C        0.12107    0.00640    0.81793    1.000
    C114     C        0.03776    0.77630    0.66630    1.000
    C115     C        0.11875    0.98050    0.87418    1.000
    H64      H        0.14400    0.03650    0.81240    1.000
    C116     C        0.08175    0.97790    0.77088    1.000
    C117     C        0.03630    0.78250    0.60472    1.000
    N19      N        0.00327    0.81864    0.67143    1.000
    C118     C        0.07765    0.93700    0.85953    1.000
    H65      H        0.13980    0.98970    0.91350    1.000
    H66      H        0.07480    0.98670    0.72860    1.000
    N20      N        0.05592    0.93670    0.79538    1.000
    H67      H        0.05690    0.76010    0.59050    1.000
    C119     C        0.99879    0.82770    0.57066    1.000
    C120     C        0.97815    0.85360    0.61174    1.000
    C121     C        0.06035    0.90460    0.90254    1.000
    H68      H        0.98840    0.83960    0.52830    1.000
    C122     C        0.08383    0.93290    0.96813    1.000
    C123     C        0.08915    0.03020    0.98269    1.000
    C124     C        0.09978    0.86600    0.01554    1.000
    H69      H        0.07940    0.07480    0.95060    1.000
    C125     C        0.10827    0.06330    0.04284    1.000
    C126     C        0.12034    0.89740    0.07663    1.000
    H70      H        0.09680    0.80070    0.00670    1.000
    H71      H        0.11070    0.12870    0.05160    1.000
    C127     C        0.12381    0.99530    0.08995    1.000
    H72      H        0.13170    0.85290    0.10850    1.000
    C128     C        0.14177    0.02840    0.15271    1.000
    N21      N        0.65465    0.55970    0.20252    1.000
    N22      N        0.15465    0.05970    0.20252    1.000
    N23      N        0.34535    0.55970    0.29748    1.000
    N24      N        0.84535    0.05970    0.29748    1.000
    Zn1      Zn       0.50000    0.14412    0.75000    1.000
    Zn2      Zn       0.50000    0.37086    0.75000    1.000
    Zn3      Zn       0.00000    0.64412    0.75000    1.000
    Zn4      Zn       0.00000    0.87086    0.75000    1.000
    N25      N        0.34535    0.44030    0.79748    1.000
    N26      N        0.84535    0.94030    0.79748    1.000
    N27      N        0.65465    0.44030    0.70252    1.000
    N28      N        0.15465    0.94030    0.70252    1.000
    Ag5      Ag       0.84600    0.86389    0.70871    1.000
    N29      N        0.78219    0.84840    0.62782    1.000
    C129     C        0.75139    0.84980    0.58497    1.000
    C130     C        0.71281    0.85520    0.53067    1.000
    C131     C        0.69223    0.94150    0.51281    1.000
    C132     C        0.69546    0.77120    0.49641    1.000
    C133     C        0.65397    0.94860    0.46007    1.000
    H73      H        0.70380    0.99620    0.53600    1.000
    H74      H        0.70900    0.71230    0.50910    1.000
    C134     C        0.65812    0.77710    0.44389    1.000
    C135     C        0.63654    0.86490    0.42544    1.000
    H75      H        0.64030    0.00750    0.44810    1.000
    H76      H        0.64720    0.72220    0.42050    1.000
    C136     C        0.59471    0.86740    0.37163    1.000
    C137     C        0.55970    0.90700    0.38013    1.000
    C138     C        0.59451    0.82850    0.31523    1.000
    C139     C        0.55765    0.94540    0.43610    1.000
    N30      N        0.51880    0.92050    0.33168    1.000
    C140     C        0.63034    0.81750    0.29724    1.000
    N31      N        0.55783    0.79866    0.26681    1.000
    C141     C        0.51650    0.97740    0.42217    1.000
    H77      H        0.58010    0.94790    0.47470    1.000
    C142     C        0.49428    0.96160    0.35774    1.000
    H78      H        0.65890    0.83170    0.32120    1.000
    C143     C        0.61442    0.78180    0.23742    1.000
    C144     C        0.56971    0.76910    0.22031    1.000
    H79      H        0.50540    0.00420    0.44940    1.000
    H80      H        0.46560    0.97820    0.33610    1.000
    H81      H        0.63010    0.76860    0.21310    1.000
    C145     C        0.62107    0.49360    0.31793    1.000
    C146     C        0.53776    0.72370    0.16630    1.000
    C147     C        0.61875    0.51950    0.37418    1.000
    H82      H        0.64400    0.46350    0.31240    1.000
    C148     C        0.58175    0.52210    0.27088    1.000
    C149     C        0.53630    0.71750    0.10472    1.000
    N32      N        0.50327    0.68136    0.17143    1.000
    C150     C        0.57765    0.56300    0.35953    1.000
    H83      H        0.63980    0.51030    0.41350    1.000
    H84      H        0.57480    0.51330    0.22860    1.000
    N33      N        0.55592    0.56330    0.29538    1.000
    H85      H        0.55690    0.73990    0.09050    1.000
    C151     C        0.49879    0.67230    0.07066    1.000
    C152     C        0.47815    0.64640    0.11174    1.000
    C153     C        0.56035    0.59540    0.40254    1.000
    H86      H        0.48840    0.66040    0.02830    1.000
    C154     C        0.58383    0.56710    0.46813    1.000
    C155     C        0.58915    0.46980    0.48269    1.000
    C156     C        0.59978    0.63400    0.51554    1.000
    H87      H        0.57940    0.42520    0.45060    1.000
    C157     C        0.60827    0.43670    0.54284    1.000
    C158     C        0.62034    0.60260    0.57663    1.000
    H88      H        0.59680    0.69930    0.50670    1.000
    H89      H        0.61070    0.37130    0.55160    1.000
    C159     C        0.62381    0.50470    0.58995    1.000
    H90      H        0.63170    0.64710    0.60850    1.000
    C160     C        0.64177    0.47160    0.65271    1.000
    Ag6      Ag       0.34600    0.36389    0.70871    1.000
    N34      N        0.28219    0.34840    0.62782    1.000
    C161     C        0.25139    0.34980    0.58497    1.000
    C162     C        0.21281    0.35520    0.53067    1.000
    C163     C        0.19223    0.44150    0.51281    1.000
    C164     C        0.19546    0.27120    0.49641    1.000
    C165     C        0.15397    0.44860    0.46007    1.000
    H91      H        0.20380    0.49620    0.53600    1.000
    H92      H        0.20900    0.21230    0.50910    1.000
    C166     C        0.15812    0.27710    0.44389    1.000
    C167     C        0.13654    0.36490    0.42544    1.000
    H93      H        0.14030    0.50750    0.44810    1.000
    H94      H        0.14720    0.22220    0.42050    1.000
    C168     C        0.09471    0.36740    0.37163    1.000
    C169     C        0.05970    0.40700    0.38013    1.000
    C170     C        0.09451    0.32850    0.31523    1.000
    C171     C        0.05765    0.44540    0.43610    1.000
    N35      N        0.01880    0.42050    0.33168    1.000
    C172     C        0.13034    0.31750    0.29724    1.000
    N36      N        0.05783    0.29866    0.26681    1.000
    C173     C        0.01650    0.47740    0.42217    1.000
    H95      H        0.08010    0.44790    0.47470    1.000
    C174     C        0.99428    0.46160    0.35774    1.000
    H96      H        0.15890    0.33170    0.32120    1.000
    C175     C        0.11442    0.28180    0.23742    1.000
    C176     C        0.06971    0.26910    0.22031    1.000
    H97      H        0.00540    0.50420    0.44940    1.000
    H98      H        0.96560    0.47820    0.33610    1.000
    H99      H        0.13010    0.26860    0.21310    1.000
    C177     C        0.12107    0.99360    0.31793    1.000
    C178     C        0.03776    0.22370    0.16630    1.000
    C179     C        0.11875    0.01950    0.37418    1.000
    H100     H        0.14400    0.96350    0.31240    1.000
    C180     C        0.08175    0.02210    0.27088    1.000
    C181     C        0.03630    0.21750    0.10472    1.000
    N37      N        0.00327    0.18136    0.17143    1.000
    C182     C        0.07765    0.06300    0.35953    1.000
    H101     H        0.13980    0.01030    0.41350    1.000
    H102     H        0.07480    0.01330    0.22860    1.000
    N38      N        0.05592    0.06330    0.29538    1.000
    H103     H        0.05690    0.23990    0.09050    1.000
    C183     C        0.99879    0.17230    0.07066    1.000
    C184     C        0.97815    0.14640    0.11174    1.000
    C185     C        0.06035    0.09540    0.40254    1.000
    H104     H        0.98840    0.16040    0.02830    1.000
    C186     C        0.08383    0.06710    0.46813    1.000
    C187     C        0.08915    0.96980    0.48269    1.000
    C188     C        0.09978    0.13400    0.51554    1.000
    H105     H        0.07940    0.92520    0.45060    1.000
    C189     C        0.10827    0.93670    0.54284    1.000
    C190     C        0.12034    0.10260    0.57663    1.000
    H106     H        0.09680    0.19930    0.50670    1.000
    H107     H        0.11070    0.87130    0.55160    1.000
    C191     C        0.12381    0.00470    0.58995    1.000
    H108     H        0.13170    0.14710    0.60850    1.000
    C192     C        0.14177    0.97160    0.65271    1.000
    Ag7      Ag       0.15400    0.86389    0.79129    1.000
    N39      N        0.21781    0.84840    0.87218    1.000
    C193     C        0.24861    0.84980    0.91503    1.000
    C194     C        0.28719    0.85520    0.96933    1.000
    C195     C        0.30777    0.94150    0.98719    1.000
    C196     C        0.30454    0.77120    0.00359    1.000
    C197     C        0.34603    0.94860    0.03993    1.000
    H109     H        0.29620    0.99620    0.96400    1.000
    H110     H        0.29100    0.71230    0.99090    1.000
    C198     C        0.34188    0.77710    0.05611    1.000
    C199     C        0.36346    0.86490    0.07456    1.000
    H111     H        0.35970    0.00750    0.05190    1.000
    H112     H        0.35280    0.72220    0.07950    1.000
    C200     C        0.40529    0.86740    0.12837    1.000
    C201     C        0.44030    0.90700    0.11987    1.000
    C202     C        0.40549    0.82850    0.18477    1.000
    C203     C        0.44235    0.94540    0.06390    1.000
    N40      N        0.48120    0.92050    0.16832    1.000
    C204     C        0.36966    0.81750    0.20276    1.000
    N41      N        0.44217    0.79866    0.23319    1.000
    C205     C        0.48350    0.97740    0.07783    1.000
    H113     H        0.41990    0.94790    0.02530    1.000
    C206     C        0.50572    0.96160    0.14226    1.000
    H114     H        0.34110    0.83170    0.17880    1.000
    C207     C        0.38558    0.78180    0.26258    1.000
    C208     C        0.43029    0.76910    0.27969    1.000
    H115     H        0.49460    0.00420    0.05060    1.000
    H116     H        0.53440    0.97820    0.16390    1.000
    H117     H        0.36990    0.76860    0.28690    1.000
    C209     C        0.37893    0.49360    0.18207    1.000
    C210     C        0.46224    0.72370    0.33370    1.000
    C211     C        0.38125    0.51950    0.12582    1.000
    H118     H        0.35600    0.46350    0.18760    1.000
    C212     C        0.41825    0.52210    0.22912    1.000
    C213     C        0.46370    0.71750    0.39528    1.000
    N42      N        0.49673    0.68136    0.32857    1.000
    C214     C        0.42235    0.56300    0.14047    1.000
    H119     H        0.36020    0.51030    0.08650    1.000
    H120     H        0.42520    0.51330    0.27140    1.000
    N43      N        0.44408    0.56330    0.20462    1.000
    H121     H        0.44310    0.73990    0.40950    1.000
    C215     C        0.50121    0.67230    0.42934    1.000
    C216     C        0.52185    0.64640    0.38826    1.000
    C217     C        0.43965    0.59540    0.09746    1.000
    H122     H        0.51160    0.66040    0.47170    1.000
    C218     C        0.41617    0.56710    0.03187    1.000
    C219     C        0.41085    0.46980    0.01731    1.000
    C220     C        0.40022    0.63400    0.98446    1.000
    H123     H        0.42060    0.42520    0.04940    1.000
    C221     C        0.39173    0.43670    0.95716    1.000
    C222     C        0.37966    0.60260    0.92337    1.000
    H124     H        0.40320    0.69930    0.99330    1.000
    H125     H        0.38930    0.37130    0.94840    1.000
    C223     C        0.37619    0.50470    0.91005    1.000
    H126     H        0.36830    0.64710    0.89150    1.000
    C224     C        0.35823    0.47160    0.84729    1.000
    Ag8      Ag       0.65400    0.36389    0.79129    1.000
    N44      N        0.71781    0.34840    0.87218    1.000
    C225     C        0.74861    0.34980    0.91503    1.000
    C226     C        0.78719    0.35520    0.96933    1.000
    C227     C        0.80777    0.44150    0.98719    1.000
    C228     C        0.80454    0.27120    0.00359    1.000
    C229     C        0.84603    0.44860    0.03993    1.000
    H127     H        0.79620    0.49620    0.96400    1.000
    H128     H        0.79100    0.21230    0.99090    1.000
    C230     C        0.84188    0.27710    0.05611    1.000
    C231     C        0.86346    0.36490    0.07456    1.000
    H129     H        0.85970    0.50750    0.05190    1.000
    H130     H        0.85280    0.22220    0.07950    1.000
    C232     C        0.90529    0.36740    0.12837    1.000
    C233     C        0.94030    0.40700    0.11987    1.000
    C234     C        0.90549    0.32850    0.18477    1.000
    C235     C        0.94235    0.44540    0.06390    1.000
    N45      N        0.98120    0.42050    0.16832    1.000
    C236     C        0.86966    0.31750    0.20276    1.000
    N46      N        0.94217    0.29866    0.23319    1.000
    C237     C        0.98350    0.47740    0.07783    1.000
    H131     H        0.91990    0.44790    0.02530    1.000
    C238     C        0.00572    0.46160    0.14226    1.000
    H132     H        0.84110    0.33170    0.17880    1.000
    C239     C        0.88558    0.28180    0.26258    1.000
    C240     C        0.93029    0.26910    0.27969    1.000
    H133     H        0.99460    0.50420    0.05060    1.000
    H134     H        0.03440    0.47820    0.16390    1.000
    H135     H        0.86990    0.26860    0.28690    1.000
    C241     C        0.87893    0.99360    0.18207    1.000
    C242     C        0.96224    0.22370    0.33370    1.000
    C243     C        0.88125    0.01950    0.12582    1.000
    H136     H        0.85600    0.96350    0.18760    1.000
    C244     C        0.91825    0.02210    0.22912    1.000
    C245     C        0.96370    0.21750    0.39528    1.000
    N47      N        0.99673    0.18136    0.32857    1.000
    C246     C        0.92235    0.06300    0.14047    1.000
    H137     H        0.86020    0.01030    0.08650    1.000
    H138     H        0.92520    0.01330    0.27140    1.000
    N48      N        0.94408    0.06330    0.20462    1.000
    H139     H        0.94310    0.23990    0.40950    1.000
    C247     C        0.00121    0.17230    0.42934    1.000
    C248     C        0.02185    0.14640    0.38826    1.000
    C249     C        0.93965    0.09540    0.09746    1.000
    H140     H        0.01160    0.16040    0.47170    1.000
    C250     C        0.91617    0.06710    0.03187    1.000
    C251     C        0.91085    0.96980    0.01731    1.000
    C252     C        0.90022    0.13400    0.98446    1.000
    H141     H        0.92060    0.92520    0.04940    1.000
    C253     C        0.89173    0.93670    0.95716    1.000
    C254     C        0.87966    0.10260    0.92337    1.000
    H142     H        0.90320    0.19930    0.99330    1.000
    H143     H        0.88930    0.87130    0.94840    1.000
    C255     C        0.87619    0.00470    0.91005    1.000
    H144     H        0.86830    0.14710    0.89150    1.000
    C256     C        0.85823    0.97160    0.84729    1.000
    Zn5      Zn       0.50000    0.85588    0.25000    1.000
    Zn6      Zn       0.50000    0.62914    0.25000    1.000
    Zn7      Zn       0.00000    0.35588    0.25000    1.000
    Zn8      Zn       0.00000    0.12914    0.25000    1.000
