# CIF file generated by openbabel 3.1.0, see https://openbabel.org
data_I
_chemical_name_common 'image0'
_cell_length_a 8.694
_cell_length_b 16.908
_cell_length_c 21.157
_cell_angle_alpha 90
_cell_angle_beta 90
_cell_angle_gamma 90
_space_group_name_H-M_alt 'P 1'
_space_group_name_Hall 'P 1'
loop_
    _symmetry_equiv_pos_as_xyz
    x,y,z
loop_
    _atom_site_label
    _atom_site_type_symbol
    _atom_site_fract_x
    _atom_site_fract_y
    _atom_site_fract_z
    _atom_site_occupancy
    Cd1      Cd       0.51049    0.12496    0.41498    1.000
    C1       C        0.72020    0.11800    0.35750    1.000
    N1       N        0.82420    0.11280    0.32640    1.000
    C2       C        0.30050    0.13220    0.35760    1.000
    N2       N        0.19660    0.13440    0.32570    1.000
    C3       C        0.52170    0.22480    0.48160    1.000
    C4       C        0.50140    0.02480    0.48170    1.000
    N3       N        0.49860    0.97520    0.51830    1.000
    Cd2      Cd       0.48951    0.87504    0.91498    1.000
    C5       C        0.27980    0.88200    0.85750    1.000
    N4       N        0.17580    0.88720    0.82640    1.000
    C6       C        0.69950    0.86780    0.85760    1.000
    N5       N        0.80340    0.86560    0.82570    1.000
    C7       C        0.47830    0.77520    0.98160    1.000
    C8       C        0.49860    0.97520    0.98170    1.000
    N6       N        0.50140    0.02480    0.01830    1.000
    Cd3      Cd       0.48951    0.62496    0.08502    1.000
    C9       C        0.27980    0.61800    0.14250    1.000
    N7       N        0.17580    0.61280    0.17360    1.000
    C10      C        0.69950    0.63220    0.14240    1.000
    N8       N        0.80340    0.63440    0.17430    1.000
    C11      C        0.47830    0.72480    0.01840    1.000
    C12      C        0.49860    0.52480    0.01830    1.000
    N9       N        0.50140    0.47520    0.98170    1.000
    Cd4      Cd       0.51049    0.37504    0.58502    1.000
    C13      C        0.72020    0.38200    0.64250    1.000
    N10      N        0.82420    0.38720    0.67360    1.000
    C14      C        0.30050    0.36780    0.64240    1.000
    N11      N        0.19660    0.36560    0.67430    1.000
    C15      C        0.52170    0.27520    0.51840    1.000
    C16      C        0.50140    0.47520    0.51830    1.000
    N12      N        0.49860    0.52480    0.48170    1.000
    Cd5      Cd       0.48951    0.87504    0.58502    1.000
    C17      C        0.27980    0.88200    0.64250    1.000
    N13      N        0.17580    0.88720    0.67360    1.000
    C18      C        0.69950    0.86780    0.64240    1.000
    N14      N        0.80340    0.86560    0.67430    1.000
    C19      C        0.47830    0.77520    0.51840    1.000
    Cd6      Cd       0.51049    0.12496    0.08502    1.000
    C20      C        0.72020    0.11800    0.14250    1.000
    N15      N        0.82420    0.11280    0.17360    1.000
    C21      C        0.30050    0.13220    0.14240    1.000
    N16      N        0.19660    0.13440    0.17430    1.000
    C22      C        0.52170    0.22480    0.01840    1.000
    Cd7      Cd       0.51049    0.37504    0.91498    1.000
    C23      C        0.72020    0.38200    0.85750    1.000
    N17      N        0.82420    0.38720    0.82640    1.000
    C24      C        0.30050    0.36780    0.85760    1.000
    N18      N        0.19660    0.36560    0.82570    1.000
    C25      C        0.52170    0.27520    0.98160    1.000
    Cd8      Cd       0.48951    0.62496    0.41498    1.000
    C26      C        0.27980    0.61800    0.35750    1.000
    N19      N        0.17580    0.61280    0.32640    1.000
    C27      C        0.69950    0.63220    0.35760    1.000
    N20      N        0.80340    0.63440    0.32570    1.000
    C28      C        0.47830    0.72480    0.48160    1.000
    Cd9      Cd       0.01046    0.12374    0.25000    1.000
    Cd10     Cd       0.98954    0.87626    0.75000    1.000
    Cd11     Cd       0.98954    0.62374    0.25000    1.000
    Cd12     Cd       0.01046    0.37626    0.75000    1.000
