# CIF file generated by openbabel 3.1.0, see https://openbabel.org
data_I
_chemical_name_common 'image0'
_cell_length_a 32.632
_cell_length_b 17.2264
_cell_length_c 10.1532
_cell_angle_alpha 90
_cell_angle_beta 93.448
_cell_angle_gamma 90
_space_group_name_H-M_alt 'P 1'
_space_group_name_Hall 'P 1'
loop_
    _symmetry_equiv_pos_as_xyz
    x,y,z
loop_
    _atom_site_label
    _atom_site_type_symbol
    _atom_site_fract_x
    _atom_site_fract_y
    _atom_site_fract_z
    _atom_site_occupancy
    Eu1      Eu       0.30826    0.20956    0.00171    1.000
    O1       O        0.28392    0.11390    0.15130    1.000
    O2       O        0.23208    0.19000    0.09380    1.000
    O3       O        0.26336    0.86080    0.35500    1.000
    O4       O        0.20130    0.80660    0.33680    1.000
    O5       O        0.37601    0.27380    0.03330    1.000
    O6       O        0.36372    0.19480    0.18950    1.000
    C1       C        0.24550    0.12530    0.13690    1.000
    C2       C        0.21760    0.06060    0.16850    1.000
    C3       C        0.23330    0.99540    0.23170    1.000
    H1       H        0.26110    0.99290    0.25780    1.000
    C4       C        0.20800    0.93390    0.25640    1.000
    C5       C        0.22590    0.86240    0.32340    1.000
    C6       C        0.16730    0.93630    0.21740    1.000
    H2       H        0.15080    0.89390    0.23420    1.000
    C7       C        0.14990    0.99970    0.15390    1.000
    C8       C        0.17710    0.06200    0.12720    1.000
    H3       H        0.16690    0.10480    0.08010    1.000
    C9       C        0.10590    0.00480    0.11070    1.000
    C10      C        0.07910    0.95520    0.15500    1.000
    H4       H        0.08790    0.91840    0.21760    1.000
    C11      C        0.03750    0.95680    0.11000    1.000
    H5       H        0.01980    0.92150    0.14680    1.000
    C12      C        0.02240    0.00280    0.02320    1.000
    C13      C        0.04920    0.05670    0.00200    1.000
    H6       H        0.03960    0.10040    0.95620    1.000
    C14      C        0.08930    0.05520    0.04110    1.000
    H7       H        0.10560    0.09540    0.01300    1.000
    N1       N        0.38670    0.24610    0.14590    1.000
    O7       O        0.41660    0.27030    0.21150    1.000
    Eu2      Eu       0.80826    0.70956    0.00171    1.000
    O8       O        0.78392    0.61390    0.15130    1.000
    O9       O        0.73208    0.69000    0.09380    1.000
    O10      O        0.76336    0.36080    0.35500    1.000
    O11      O        0.70130    0.30660    0.33680    1.000
    O12      O        0.87601    0.77380    0.03330    1.000
    O13      O        0.86372    0.69480    0.18950    1.000
    C15      C        0.74550    0.62530    0.13690    1.000
    C16      C        0.71760    0.56060    0.16850    1.000
    C17      C        0.73330    0.49540    0.23170    1.000
    H8       H        0.76110    0.49290    0.25780    1.000
    C18      C        0.70800    0.43390    0.25640    1.000
    C19      C        0.72590    0.36240    0.32340    1.000
    C20      C        0.66730    0.43630    0.21740    1.000
    H9       H        0.65080    0.39390    0.23420    1.000
    C21      C        0.64990    0.49970    0.15390    1.000
    C22      C        0.67710    0.56200    0.12720    1.000
    H10      H        0.66690    0.60480    0.08010    1.000
    C23      C        0.60590    0.50480    0.11070    1.000
    C24      C        0.57910    0.45520    0.15500    1.000
    H11      H        0.58790    0.41840    0.21760    1.000
    C25      C        0.53750    0.45680    0.11000    1.000
    H12      H        0.51980    0.42150    0.14680    1.000
    C26      C        0.52240    0.50280    0.02320    1.000
    C27      C        0.54920    0.55670    0.00200    1.000
    H13      H        0.53960    0.60040    0.95620    1.000
    C28      C        0.58930    0.55520    0.04110    1.000
    H14      H        0.60560    0.59540    0.01300    1.000
    N2       N        0.88670    0.74610    0.14590    1.000
    O14      O        0.91660    0.77030    0.21150    1.000
    Eu3      Eu       0.69174    0.20956    0.49829    1.000
    O15      O        0.71608    0.11390    0.34870    1.000
    O16      O        0.76792    0.19000    0.40620    1.000
    O17      O        0.73664    0.86080    0.14500    1.000
    O18      O        0.79870    0.80660    0.16320    1.000
    O19      O        0.62399    0.27380    0.46670    1.000
    O20      O        0.63628    0.19480    0.31050    1.000
    C29      C        0.75450    0.12530    0.36310    1.000
    C30      C        0.78240    0.06060    0.33150    1.000
    C31      C        0.76670    0.99540    0.26830    1.000
    H15      H        0.73890    0.99290    0.24220    1.000
    C32      C        0.79200    0.93390    0.24360    1.000
    C33      C        0.77410    0.86240    0.17660    1.000
    C34      C        0.83270    0.93630    0.28260    1.000
    H16      H        0.84920    0.89390    0.26580    1.000
    C35      C        0.85010    0.99970    0.34610    1.000
    C36      C        0.82290    0.06200    0.37280    1.000
    H17      H        0.83310    0.10480    0.41990    1.000
    C37      C        0.89410    0.00480    0.38930    1.000
    C38      C        0.92090    0.95520    0.34500    1.000
    H18      H        0.91210    0.91840    0.28240    1.000
    C39      C        0.96250    0.95680    0.39000    1.000
    H19      H        0.98020    0.92150    0.35320    1.000
    C40      C        0.97760    0.00280    0.47680    1.000
    C41      C        0.95080    0.05670    0.49800    1.000
    H20      H        0.96040    0.10040    0.54380    1.000
    C42      C        0.91070    0.05520    0.45890    1.000
    H21      H        0.89440    0.09540    0.48700    1.000
    N3       N        0.61330    0.24610    0.35410    1.000
    O21      O        0.58340    0.27030    0.28850    1.000
    Eu4      Eu       0.19174    0.70956    0.49829    1.000
    O22      O        0.21608    0.61390    0.34870    1.000
    O23      O        0.26792    0.69000    0.40620    1.000
    O24      O        0.23664    0.36080    0.14500    1.000
    O25      O        0.29870    0.30660    0.16320    1.000
    O26      O        0.12399    0.77380    0.46670    1.000
    O27      O        0.13628    0.69480    0.31050    1.000
    C43      C        0.25450    0.62530    0.36310    1.000
    C44      C        0.28240    0.56060    0.33150    1.000
    C45      C        0.26670    0.49540    0.26830    1.000
    H22      H        0.23890    0.49290    0.24220    1.000
    C46      C        0.29200    0.43390    0.24360    1.000
    C47      C        0.27410    0.36240    0.17660    1.000
    C48      C        0.33270    0.43630    0.28260    1.000
    H23      H        0.34920    0.39390    0.26580    1.000
    C49      C        0.35010    0.49970    0.34610    1.000
    C50      C        0.32290    0.56200    0.37280    1.000
    H24      H        0.33310    0.60480    0.41990    1.000
    C51      C        0.39410    0.50480    0.38930    1.000
    C52      C        0.42090    0.45520    0.34500    1.000
    H25      H        0.41210    0.41840    0.28240    1.000
    C53      C        0.46250    0.45680    0.39000    1.000
    H26      H        0.48020    0.42150    0.35320    1.000
    C54      C        0.47760    0.50280    0.47680    1.000
    C55      C        0.45080    0.55670    0.49800    1.000
    H27      H        0.46040    0.60040    0.54380    1.000
    C56      C        0.41070    0.55520    0.45890    1.000
    H28      H        0.39440    0.59540    0.48700    1.000
    N4       N        0.11330    0.74610    0.35410    1.000
    O28      O        0.08340    0.77030    0.28850    1.000
    Eu5      Eu       0.69174    0.79044    0.99829    1.000
    O29      O        0.71608    0.88610    0.84870    1.000
    O30      O        0.76792    0.81000    0.90620    1.000
    O31      O        0.73664    0.13920    0.64500    1.000
    O32      O        0.79870    0.19340    0.66320    1.000
    O33      O        0.62399    0.72620    0.96670    1.000
    O34      O        0.63628    0.80520    0.81050    1.000
    C57      C        0.75450    0.87470    0.86310    1.000
    C58      C        0.78240    0.93940    0.83150    1.000
    C59      C        0.76670    0.00460    0.76830    1.000
    H29      H        0.73890    0.00710    0.74220    1.000
    C60      C        0.79200    0.06610    0.74360    1.000
    C61      C        0.77410    0.13760    0.67660    1.000
    C62      C        0.83270    0.06370    0.78260    1.000
    H30      H        0.84920    0.10610    0.76580    1.000
    C63      C        0.85010    0.00030    0.84610    1.000
    C64      C        0.82290    0.93800    0.87280    1.000
    H31      H        0.83310    0.89520    0.91990    1.000
    C65      C        0.89410    0.99520    0.88930    1.000
    C66      C        0.92090    0.04480    0.84500    1.000
    H32      H        0.91210    0.08160    0.78240    1.000
    C67      C        0.96250    0.04320    0.89000    1.000
    H33      H        0.98020    0.07850    0.85320    1.000
    C68      C        0.97760    0.99720    0.97680    1.000
    C69      C        0.95080    0.94330    0.99800    1.000
    H34      H        0.96040    0.89960    0.04380    1.000
    C70      C        0.91070    0.94480    0.95890    1.000
    H35      H        0.89440    0.90460    0.98700    1.000
    N5       N        0.61330    0.75390    0.85410    1.000
    O35      O        0.58340    0.72970    0.78850    1.000
    Eu6      Eu       0.19174    0.29044    0.99829    1.000
    O36      O        0.21608    0.38610    0.84870    1.000
    O37      O        0.26792    0.31000    0.90620    1.000
    O38      O        0.23664    0.63920    0.64500    1.000
    O39      O        0.29870    0.69340    0.66320    1.000
    O40      O        0.12399    0.22620    0.96670    1.000
    O41      O        0.13628    0.30520    0.81050    1.000
    C71      C        0.25450    0.37470    0.86310    1.000
    C72      C        0.28240    0.43940    0.83150    1.000
    C73      C        0.26670    0.50460    0.76830    1.000
    H36      H        0.23890    0.50710    0.74220    1.000
    C74      C        0.29200    0.56610    0.74360    1.000
    C75      C        0.27410    0.63760    0.67660    1.000
    C76      C        0.33270    0.56370    0.78260    1.000
    H37      H        0.34920    0.60610    0.76580    1.000
    C77      C        0.35010    0.50030    0.84610    1.000
    C78      C        0.32290    0.43800    0.87280    1.000
    H38      H        0.33310    0.39520    0.91990    1.000
    C79      C        0.39410    0.49520    0.88930    1.000
    C80      C        0.42090    0.54480    0.84500    1.000
    H39      H        0.41210    0.58160    0.78240    1.000
    C81      C        0.46250    0.54320    0.89000    1.000
    H40      H        0.48020    0.57850    0.85320    1.000
    C82      C        0.47760    0.49720    0.97680    1.000
    C83      C        0.45080    0.44330    0.99800    1.000
    H41      H        0.46040    0.39960    0.04380    1.000
    C84      C        0.41070    0.44480    0.95890    1.000
    H42      H        0.39440    0.40460    0.98700    1.000
    N6       N        0.11330    0.25390    0.85410    1.000
    O42      O        0.08340    0.22970    0.78850    1.000
    Eu7      Eu       0.30826    0.79044    0.50171    1.000
    O43      O        0.28392    0.88610    0.65130    1.000
    O44      O        0.23208    0.81000    0.59380    1.000
    O45      O        0.26336    0.13920    0.85500    1.000
    O46      O        0.20130    0.19340    0.83680    1.000
    O47      O        0.37601    0.72620    0.53330    1.000
    O48      O        0.36372    0.80520    0.68950    1.000
    C85      C        0.24550    0.87470    0.63690    1.000
    C86      C        0.21760    0.93940    0.66850    1.000
    C87      C        0.23330    0.00460    0.73170    1.000
    H43      H        0.26110    0.00710    0.75780    1.000
    C88      C        0.20800    0.06610    0.75640    1.000
    C89      C        0.22590    0.13760    0.82340    1.000
    C90      C        0.16730    0.06370    0.71740    1.000
    H44      H        0.15080    0.10610    0.73420    1.000
    C91      C        0.14990    0.00030    0.65390    1.000
    C92      C        0.17710    0.93800    0.62720    1.000
    H45      H        0.16690    0.89520    0.58010    1.000
    C93      C        0.10590    0.99520    0.61070    1.000
    C94      C        0.07910    0.04480    0.65500    1.000
    H46      H        0.08790    0.08160    0.71760    1.000
    C95      C        0.03750    0.04320    0.61000    1.000
    H47      H        0.01980    0.07850    0.64680    1.000
    C96      C        0.02240    0.99720    0.52320    1.000
    C97      C        0.04920    0.94330    0.50200    1.000
    H48      H        0.03960    0.89960    0.45620    1.000
    C98      C        0.08930    0.94480    0.54110    1.000
    H49      H        0.10560    0.90460    0.51300    1.000
    N7       N        0.38670    0.75390    0.64590    1.000
    O49      O        0.41660    0.72970    0.71150    1.000
    Eu8      Eu       0.80826    0.29044    0.50171    1.000
    O50      O        0.78392    0.38610    0.65130    1.000
    O51      O        0.73208    0.31000    0.59380    1.000
    O52      O        0.76336    0.63920    0.85500    1.000
    O53      O        0.70130    0.69340    0.83680    1.000
    O54      O        0.87601    0.22620    0.53330    1.000
    O55      O        0.86372    0.30520    0.68950    1.000
    C99      C        0.74550    0.37470    0.63690    1.000
    C100     C        0.71760    0.43940    0.66850    1.000
    C101     C        0.73330    0.50460    0.73170    1.000
    H50      H        0.76110    0.50710    0.75780    1.000
    C102     C        0.70800    0.56610    0.75640    1.000
    C103     C        0.72590    0.63760    0.82340    1.000
    C104     C        0.66730    0.56370    0.71740    1.000
    H51      H        0.65080    0.60610    0.73420    1.000
    C105     C        0.64990    0.50030    0.65390    1.000
    C106     C        0.67710    0.43800    0.62720    1.000
    H52      H        0.66690    0.39520    0.58010    1.000
    C107     C        0.60590    0.49520    0.61070    1.000
    C108     C        0.57910    0.54480    0.65500    1.000
    H53      H        0.58790    0.58160    0.71760    1.000
    C109     C        0.53750    0.54320    0.61000    1.000
    H54      H        0.51980    0.57850    0.64680    1.000
    C110     C        0.52240    0.49720    0.52320    1.000
    C111     C        0.54920    0.44330    0.50200    1.000
    H55      H        0.53960    0.39960    0.45620    1.000
    C112     C        0.58930    0.44480    0.54110    1.000
    H56      H        0.60560    0.40460    0.51300    1.000
    N8       N        0.88670    0.25390    0.64590    1.000
    O56      O        0.91660    0.22970    0.71150    1.000
