# CIF file generated by openbabel 3.1.0, see https://openbabel.org
data_I
_chemical_name_common 'image0'
_cell_length_a 14.761
_cell_length_b 14.761
_cell_length_c 10.879
_cell_angle_alpha 90
_cell_angle_beta 90
_cell_angle_gamma 90
_space_group_name_H-M_alt 'P 1'
_space_group_name_Hall 'P 1'
loop_
    _symmetry_equiv_pos_as_xyz
    x,y,z
loop_
    _atom_site_label
    _atom_site_type_symbol
    _atom_site_fract_x
    _atom_site_fract_y
    _atom_site_fract_z
    _atom_site_occupancy
    O1       O        0.73448    0.65408    0.15842    1.000
    O2       O        0.86232    0.67533    0.05239    1.000
    N1       N        0.59723    0.79226    0.16591    1.000
    C1       C        0.77784    0.66569    0.06075    1.000
    H1       H        0.64700    0.81020    0.15900    1.000
    H2       H        0.57370    0.79990    0.23900    1.000
    O3       O        0.23448    0.15408    0.65842    1.000
    O4       O        0.36232    0.17533    0.55239    1.000
    N2       N        0.09723    0.29226    0.66591    1.000
    C2       C        0.27784    0.16569    0.56075    1.000
    H3       H        0.14700    0.31020    0.65900    1.000
    H4       H        0.07370    0.29990    0.73900    1.000
    O5       O        0.76552    0.34592    0.65842    1.000
    O6       O        0.63768    0.32467    0.55239    1.000
    N3       N        0.90277    0.20774    0.66591    1.000
    C3       C        0.72216    0.33431    0.56075    1.000
    H5       H        0.85300    0.18980    0.65900    1.000
    H6       H        0.92630    0.20010    0.73900    1.000
    O7       O        0.26552    0.84592    0.15842    1.000
    O8       O        0.13768    0.82467    0.05239    1.000
    N4       N        0.40277    0.70774    0.16591    1.000
    C4       C        0.22216    0.83431    0.06075    1.000
    H7       H        0.35300    0.68980    0.15900    1.000
    H8       H        0.42630    0.70010    0.23900    1.000
    O9       O        0.59592    0.48448    0.40842    1.000
    O10      O        0.57467    0.61232    0.30239    1.000
    N5       N        0.45774    0.34723    0.41591    1.000
    C5       C        0.58431    0.52784    0.31075    1.000
    H9       H        0.43980    0.39700    0.40900    1.000
    H10      H        0.45010    0.32370    0.48900    1.000
    O11      O        0.09592    0.98448    0.90842    1.000
    O12      O        0.07467    0.11232    0.80239    1.000
    N6       N        0.95774    0.84723    0.91591    1.000
    C6       C        0.08431    0.02784    0.81075    1.000
    H11      H        0.93980    0.89700    0.90900    1.000
    H12      H        0.95010    0.82370    0.98900    1.000
    O13      O        0.90408    0.51552    0.90842    1.000
    O14      O        0.92533    0.38768    0.80239    1.000
    N7       N        0.04226    0.65277    0.91591    1.000
    C7       C        0.91569    0.47216    0.81075    1.000
    H13      H        0.06020    0.60300    0.90900    1.000
    H14      H        0.04990    0.67630    0.98900    1.000
    O15      O        0.40408    0.01552    0.40842    1.000
    O16      O        0.42533    0.88768    0.30239    1.000
    N8       N        0.54226    0.15277    0.41591    1.000
    C8       C        0.41569    0.97216    0.31075    1.000
    H15      H        0.56020    0.10300    0.40900    1.000
    H16      H        0.54990    0.17630    0.48900    1.000
    O17      O        0.76552    0.65408    0.84158    1.000
    O18      O        0.63768    0.67533    0.94761    1.000
    N9       N        0.90277    0.79226    0.83409    1.000
    C9       C        0.72216    0.66569    0.93925    1.000
    H17      H        0.85300    0.81020    0.84100    1.000
    H18      H        0.92630    0.79990    0.76100    1.000
    O19      O        0.26552    0.15408    0.34158    1.000
    O20      O        0.13768    0.17533    0.44761    1.000
    N10      N        0.40277    0.29226    0.33409    1.000
    C10      C        0.22216    0.16569    0.43925    1.000
    H19      H        0.35300    0.31020    0.34100    1.000
    H20      H        0.42630    0.29990    0.26100    1.000
    O21      O        0.73448    0.34592    0.34158    1.000
    O22      O        0.86232    0.32467    0.44761    1.000
    N11      N        0.59723    0.20774    0.33409    1.000
    C11      C        0.77784    0.33431    0.43925    1.000
    H21      H        0.64700    0.18980    0.34100    1.000
    H22      H        0.57370    0.20010    0.26100    1.000
    O23      O        0.23448    0.84592    0.84158    1.000
    O24      O        0.36232    0.82467    0.94761    1.000
    N12      N        0.09723    0.70774    0.83409    1.000
    C12      C        0.27784    0.83431    0.93925    1.000
    H23      H        0.14700    0.68980    0.84100    1.000
    H24      H        0.07370    0.70010    0.76100    1.000
    O25      O        0.90408    0.48448    0.59158    1.000
    O26      O        0.92533    0.61232    0.69761    1.000
    N13      N        0.04226    0.34723    0.58409    1.000
    C13      C        0.91569    0.52784    0.68925    1.000
    H25      H        0.06020    0.39700    0.59100    1.000
    H26      H        0.04990    0.32370    0.51100    1.000
    O27      O        0.40408    0.98448    0.09158    1.000
    O28      O        0.42533    0.11232    0.19761    1.000
    N14      N        0.54226    0.84723    0.08409    1.000
    C14      C        0.41569    0.02784    0.18925    1.000
    H27      H        0.56020    0.89700    0.09100    1.000
    H28      H        0.54990    0.82370    0.01100    1.000
    O29      O        0.59592    0.51552    0.09158    1.000
    O30      O        0.57467    0.38768    0.19761    1.000
    N15      N        0.45774    0.65277    0.08409    1.000
    C15      C        0.58431    0.47216    0.18925    1.000
    H29      H        0.43980    0.60300    0.09100    1.000
    H30      H        0.45010    0.67630    0.01100    1.000
    O31      O        0.09592    0.01552    0.59158    1.000
    O32      O        0.07467    0.88768    0.69761    1.000
    N16      N        0.95774    0.15277    0.58409    1.000
    C16      C        0.08431    0.97216    0.68925    1.000
    H31      H        0.93980    0.10300    0.59100    1.000
    H32      H        0.95010    0.17630    0.51100    1.000
    Ni1      Ni       0.59501    0.65499    0.12500    1.000
    Ni2      Ni       0.09501    0.15499    0.62500    1.000
    Ni3      Ni       0.90499    0.34501    0.62500    1.000
    Ni4      Ni       0.40499    0.84501    0.12500    1.000
    Ni5      Ni       0.59501    0.34501    0.37500    1.000
    Ni6      Ni       0.09501    0.84501    0.87500    1.000
    Ni7      Ni       0.90499    0.65499    0.87500    1.000
    Ni8      Ni       0.40499    0.15499    0.37500    1.000
    O33      O        0.26552    0.34592    0.84158    1.000
    O34      O        0.13768    0.32467    0.94761    1.000
    N17      N        0.40277    0.20774    0.83409    1.000
    C17      C        0.22216    0.33431    0.93925    1.000
    H33      H        0.35300    0.18980    0.84100    1.000
    H34      H        0.42630    0.20010    0.76100    1.000
    O35      O        0.76552    0.84592    0.34158    1.000
    O36      O        0.63768    0.82467    0.44761    1.000
    N18      N        0.90277    0.70774    0.33409    1.000
    C18      C        0.72216    0.83431    0.43925    1.000
    H35      H        0.85300    0.68980    0.34100    1.000
    H36      H        0.92630    0.70010    0.26100    1.000
    O37      O        0.23448    0.65408    0.34158    1.000
    O38      O        0.36232    0.67533    0.44761    1.000
    N19      N        0.09723    0.79226    0.33409    1.000
    C19      C        0.27784    0.66569    0.43925    1.000
    H37      H        0.14700    0.81020    0.34100    1.000
    H38      H        0.07370    0.79990    0.26100    1.000
    O39      O        0.73448    0.15408    0.84158    1.000
    O40      O        0.86232    0.17533    0.94761    1.000
    N20      N        0.59723    0.29226    0.83409    1.000
    C20      C        0.77784    0.16569    0.93925    1.000
    H39      H        0.64700    0.31020    0.84100    1.000
    H40      H        0.57370    0.29990    0.76100    1.000
    O41      O        0.40408    0.51552    0.59158    1.000
    O42      O        0.42533    0.38768    0.69761    1.000
    N21      N        0.54226    0.65277    0.58409    1.000
    C21      C        0.41569    0.47216    0.68925    1.000
    H41      H        0.56020    0.60300    0.59100    1.000
    H42      H        0.54990    0.67630    0.51100    1.000
    O43      O        0.90408    0.01552    0.09158    1.000
    O44      O        0.92533    0.88768    0.19761    1.000
    N22      N        0.04226    0.15277    0.08409    1.000
    C22      C        0.91569    0.97216    0.18925    1.000
    H43      H        0.06020    0.10300    0.09100    1.000
    H44      H        0.04990    0.17630    0.01100    1.000
    O45      O        0.09592    0.48448    0.09158    1.000
    O46      O        0.07467    0.61232    0.19761    1.000
    N23      N        0.95774    0.34723    0.08409    1.000
    C23      C        0.08431    0.52784    0.18925    1.000
    H45      H        0.93980    0.39700    0.09100    1.000
    H46      H        0.95010    0.32370    0.01100    1.000
    O47      O        0.59592    0.98448    0.59158    1.000
    O48      O        0.57467    0.11232    0.69761    1.000
    N24      N        0.45774    0.84723    0.58409    1.000
    C24      C        0.58431    0.02784    0.68925    1.000
    H47      H        0.43980    0.89700    0.59100    1.000
    H48      H        0.45010    0.82370    0.51100    1.000
    O49      O        0.23448    0.34592    0.15842    1.000
    O50      O        0.36232    0.32467    0.05239    1.000
    N25      N        0.09723    0.20774    0.16591    1.000
    C25      C        0.27784    0.33431    0.06075    1.000
    H49      H        0.14700    0.18980    0.15900    1.000
    H50      H        0.07370    0.20010    0.23900    1.000
    O51      O        0.73448    0.84592    0.65842    1.000
    O52      O        0.86232    0.82467    0.55239    1.000
    N26      N        0.59723    0.70774    0.66591    1.000
    C26      C        0.77784    0.83431    0.56075    1.000
    H51      H        0.64700    0.68980    0.65900    1.000
    H52      H        0.57370    0.70010    0.73900    1.000
    O53      O        0.26552    0.65408    0.65842    1.000
    O54      O        0.13768    0.67533    0.55239    1.000
    N27      N        0.40277    0.79226    0.66591    1.000
    C27      C        0.22216    0.66569    0.56075    1.000
    H53      H        0.35300    0.81020    0.65900    1.000
    H54      H        0.42630    0.79990    0.73900    1.000
    O55      O        0.76552    0.15408    0.15842    1.000
    O56      O        0.63768    0.17533    0.05239    1.000
    N28      N        0.90277    0.29226    0.16591    1.000
    C28      C        0.72216    0.16569    0.06075    1.000
    H55      H        0.85300    0.31020    0.15900    1.000
    H56      H        0.92630    0.29990    0.23900    1.000
    O57      O        0.09592    0.51552    0.40842    1.000
    O58      O        0.07467    0.38768    0.30239    1.000
    N29      N        0.95774    0.65277    0.41591    1.000
    C29      C        0.08431    0.47216    0.31075    1.000
    H57      H        0.93980    0.60300    0.40900    1.000
    H58      H        0.95010    0.67630    0.48900    1.000
    O59      O        0.59592    0.01552    0.90842    1.000
    O60      O        0.57467    0.88768    0.80239    1.000
    N30      N        0.45774    0.15277    0.91591    1.000
    C30      C        0.58431    0.97216    0.81075    1.000
    H59      H        0.43980    0.10300    0.90900    1.000
    H60      H        0.45010    0.17630    0.98900    1.000
    O61      O        0.40408    0.48448    0.90842    1.000
    O62      O        0.42533    0.61232    0.80239    1.000
    N31      N        0.54226    0.34723    0.91591    1.000
    C31      C        0.41569    0.52784    0.81075    1.000
    H61      H        0.56020    0.39700    0.90900    1.000
    H62      H        0.54990    0.32370    0.98900    1.000
    O63      O        0.90408    0.98448    0.40842    1.000
    O64      O        0.92533    0.11232    0.30239    1.000
    N32      N        0.04226    0.84723    0.41591    1.000
    C32      C        0.91569    0.02784    0.31075    1.000
    H63      H        0.06020    0.89700    0.40900    1.000
    H64      H        0.04990    0.82370    0.48900    1.000
    Ni9      Ni       0.40499    0.34501    0.87500    1.000
    Ni10     Ni       0.90499    0.84501    0.37500    1.000
    Ni11     Ni       0.09501    0.65499    0.37500    1.000
    Ni12     Ni       0.59501    0.15499    0.87500    1.000
    Ni13     Ni       0.40499    0.65499    0.62500    1.000
    Ni14     Ni       0.90499    0.15499    0.12500    1.000
    Ni15     Ni       0.09501    0.34501    0.12500    1.000
    Ni16     Ni       0.59501    0.84501    0.62500    1.000
