# CIF file generated by openbabel 3.1.0, see https://openbabel.org
data_I
_chemical_name_common 'image0'
_cell_length_a 15.93
_cell_length_b 13.588
_cell_length_c 6.663
_cell_angle_alpha 90
_cell_angle_beta 97.392
_cell_angle_gamma 90
_space_group_name_H-M_alt 'P 1'
_space_group_name_Hall 'P 1'
loop_
    _symmetry_equiv_pos_as_xyz
    x,y,z
loop_
    _atom_site_label
    _atom_site_type_symbol
    _atom_site_fract_x
    _atom_site_fract_y
    _atom_site_fract_z
    _atom_site_occupancy
    Pr1      Pr       0.74945    0.94004    0.02861    1.000
    C1       C        0.64330    0.78390    0.65750    1.000
    C2       C        0.54850    0.78340    0.62300    1.000
    C3       C        0.50560    0.87380    0.62110    1.000
    H1       H        0.53700    0.93120    0.64530    1.000
    C4       C        0.37680    0.79750    0.55520    1.000
    H2       H        0.31810    0.80220    0.53090    1.000
    C5       C        0.41360    0.70420    0.55780    1.000
    C6       C        0.50070    0.69720    0.59300    1.000
    H3       H        0.52710    0.63610    0.59680    1.000
    C7       C        0.35770    0.61440    0.52180    1.000
    C8       C        0.89930    0.95240    0.32900    1.000
    C9       C        0.98130    0.95390    0.48900    1.000
    H4       H        0.96650    0.93250    0.61880    1.000
    H5       H        0.02190    0.90730    0.44760    1.000
    N1       N        0.42160    0.88050    0.58600    1.000
    O1       O        0.68060    0.86200    0.70990    1.000
    O2       O        0.67960    0.70440    0.63330    1.000
    O3       O        0.28130    0.62450    0.45050    1.000
    O4       O        0.38980    0.53090    0.56300    1.000
    O5       O        0.88860    0.01330    0.18500    1.000
    O6       O        0.84900    0.88300    0.33940    1.000
    Pr2      Pr       0.25055    0.44004    0.47139    1.000
    C10      C        0.35670    0.28390    0.84250    1.000
    C11      C        0.45150    0.28340    0.87700    1.000
    C12      C        0.49440    0.37380    0.87890    1.000
    H6       H        0.46300    0.43120    0.85470    1.000
    C13      C        0.62320    0.29750    0.94480    1.000
    H7       H        0.68190    0.30220    0.96910    1.000
    C14      C        0.58640    0.20420    0.94220    1.000
    C15      C        0.49930    0.19720    0.90700    1.000
    H8       H        0.47290    0.13610    0.90320    1.000
    C16      C        0.64230    0.11440    0.97820    1.000
    C17      C        0.10070    0.45240    0.17100    1.000
    C18      C        0.01870    0.45390    0.01100    1.000
    H9       H        0.03350    0.43250    0.88120    1.000
    H10      H        0.97810    0.40730    0.05240    1.000
    N2       N        0.57840    0.38050    0.91400    1.000
    O7       O        0.31940    0.36200    0.79010    1.000
    O8       O        0.32040    0.20440    0.86670    1.000
    O9       O        0.71870    0.12450    0.04950    1.000
    O10      O        0.61020    0.03090    0.93700    1.000
    O11      O        0.11140    0.51330    0.31500    1.000
    O12      O        0.15100    0.38300    0.16060    1.000
    Pr3      Pr       0.25055    0.05996    0.97139    1.000
    C19      C        0.35670    0.21610    0.34250    1.000
    C20      C        0.45150    0.21660    0.37700    1.000
    C21      C        0.49440    0.12620    0.37890    1.000
    H11      H        0.46300    0.06880    0.35470    1.000
    C22      C        0.62320    0.20250    0.44480    1.000
    H12      H        0.68190    0.19780    0.46910    1.000
    C23      C        0.58640    0.29580    0.44220    1.000
    C24      C        0.49930    0.30280    0.40700    1.000
    H13      H        0.47290    0.36390    0.40320    1.000
    C25      C        0.64230    0.38560    0.47820    1.000
    C26      C        0.10070    0.04760    0.67100    1.000
    C27      C        0.01870    0.04610    0.51100    1.000
    H14      H        0.03350    0.06750    0.38120    1.000
    H15      H        0.97810    0.09270    0.55240    1.000
    N3       N        0.57840    0.11950    0.41400    1.000
    O13      O        0.31940    0.13800    0.29010    1.000
    O14      O        0.32040    0.29560    0.36670    1.000
    O15      O        0.71870    0.37550    0.54950    1.000
    O16      O        0.61020    0.46910    0.43700    1.000
    O17      O        0.11140    0.98670    0.81500    1.000
    O18      O        0.15100    0.11700    0.66060    1.000
    Pr4      Pr       0.74945    0.55996    0.52861    1.000
    C28      C        0.64330    0.71610    0.15750    1.000
    C29      C        0.54850    0.71660    0.12300    1.000
    C30      C        0.50560    0.62620    0.12110    1.000
    H16      H        0.53700    0.56880    0.14530    1.000
    C31      C        0.37680    0.70250    0.05520    1.000
    H17      H        0.31810    0.69780    0.03090    1.000
    C32      C        0.41360    0.79580    0.05780    1.000
    C33      C        0.50070    0.80280    0.09300    1.000
    H18      H        0.52710    0.86390    0.09680    1.000
    C34      C        0.35770    0.88560    0.02180    1.000
    C35      C        0.89930    0.54760    0.82900    1.000
    C36      C        0.98130    0.54610    0.98900    1.000
    H19      H        0.96650    0.56750    0.11880    1.000
    H20      H        0.02190    0.59270    0.94760    1.000
    N4       N        0.42160    0.61950    0.08600    1.000
    O19      O        0.68060    0.63800    0.20990    1.000
    O20      O        0.67960    0.79560    0.13330    1.000
    O21      O        0.28130    0.87550    0.95050    1.000
    O22      O        0.38980    0.96910    0.06300    1.000
    O23      O        0.88860    0.48670    0.68500    1.000
    O24      O        0.84900    0.61700    0.83940    1.000
