# CIF file generated by openbabel 3.1.0, see https://openbabel.org
data_I
_chemical_name_common 'image0'
_cell_length_a 11.6575
_cell_length_b 10.1053
_cell_length_c 14.879
_cell_angle_alpha 90
_cell_angle_beta 91.633
_cell_angle_gamma 90
_space_group_name_H-M_alt 'P 1'
_space_group_name_Hall 'P 1'
loop_
    _symmetry_equiv_pos_as_xyz
    x,y,z
loop_
    _atom_site_label
    _atom_site_type_symbol
    _atom_site_fract_x
    _atom_site_fract_y
    _atom_site_fract_z
    _atom_site_occupancy
    Mn1      Mn       0.73947    0.59944    0.31509    1.000
    Mn2      Mn       0.24317    0.58462    0.86883    1.000
    O1       O        0.09858    0.66260    0.93979    1.000
    O2       O        0.68612    0.52880    0.02157    1.000
    O3       O        0.85165    0.57600    0.19750    1.000
    O4       O        0.62704    0.49810    0.21960    1.000
    O5       O        0.51900    0.28760    0.00203    1.000
    O6       O        0.69174    0.79190    0.25249    1.000
    O7       O        0.10660    0.87960    0.90936    1.000
    O8       O        0.65347    0.23670    0.10685    1.000
    O9       O        0.46123    0.49770    0.14117    1.000
    O10      O        0.68420    0.92470    0.13167    1.000
    O11      O        0.01290    0.61160    0.12341    1.000
    O12      O        0.84620    0.60740    0.96224    1.000
    C1       C        0.94770    0.63100    0.18600    1.000
    C2       C        0.66940    0.81720    0.17000    1.000
    C3       C        0.57350    0.20810    0.04950    1.000
    C4       C        0.51860    0.50920    0.21170    1.000
    C5       C        0.06540    0.78230    0.94730    1.000
    C6       C        0.74120    0.60280    0.96780    1.000
    H1       H        0.01880    0.78220    0.97770    1.000
    H2       H        0.55400    0.11310    0.04210    1.000
    H3       H        0.64570    0.74900    0.13440    1.000
    H4       H        0.47810    0.51300    0.27040    1.000
    H5       H        0.69190    0.66420    0.92730    1.000
    H6       H        0.97940    0.68170    0.23190    1.000
    Mn3      Mn       0.76053    0.09944    0.18491    1.000
    Mn4      Mn       0.25683    0.08462    0.63117    1.000
    O13      O        0.40142    0.16260    0.56021    1.000
    O14      O        0.81388    0.02880    0.47843    1.000
    O15      O        0.64835    0.07600    0.30250    1.000
    O16      O        0.87296    0.99810    0.28040    1.000
    O17      O        0.98100    0.78760    0.49797    1.000
    O18      O        0.80826    0.29190    0.24751    1.000
    O19      O        0.39340    0.37960    0.59064    1.000
    O20      O        0.84653    0.73670    0.39315    1.000
    O21      O        0.03877    0.99770    0.35883    1.000
    O22      O        0.81580    0.42470    0.36833    1.000
    O23      O        0.48710    0.11160    0.37659    1.000
    O24      O        0.65380    0.10740    0.53776    1.000
    C7       C        0.55230    0.13100    0.31400    1.000
    C8       C        0.83060    0.31720    0.33000    1.000
    C9       C        0.92650    0.70810    0.45050    1.000
    C10      C        0.98140    0.00920    0.28830    1.000
    C11      C        0.43460    0.28230    0.55270    1.000
    C12      C        0.75880    0.10280    0.53220    1.000
    H7       H        0.48120    0.28220    0.52230    1.000
    H8       H        0.94600    0.61310    0.45790    1.000
    H9       H        0.85430    0.24900    0.36560    1.000
    H10      H        0.02190    0.01300    0.22960    1.000
    H11      H        0.80810    0.16420    0.57270    1.000
    H12      H        0.52060    0.18170    0.26810    1.000
    Mn5      Mn       0.26053    0.40056    0.68491    1.000
    Mn6      Mn       0.75683    0.41538    0.13117    1.000
    O25      O        0.90142    0.33740    0.06021    1.000
    O26      O        0.31388    0.47120    0.97843    1.000
    O27      O        0.14835    0.42400    0.80250    1.000
    O28      O        0.37296    0.50190    0.78040    1.000
    O29      O        0.48100    0.71240    0.99797    1.000
    O30      O        0.30826    0.20810    0.74751    1.000
    O31      O        0.89340    0.12040    0.09064    1.000
    O32      O        0.34653    0.76330    0.89315    1.000
    O33      O        0.53877    0.50230    0.85883    1.000
    O34      O        0.31580    0.07530    0.86833    1.000
    O35      O        0.98710    0.38840    0.87659    1.000
    O36      O        0.15380    0.39260    0.03776    1.000
    C13      C        0.05230    0.36900    0.81400    1.000
    C14      C        0.33060    0.18280    0.83000    1.000
    C15      C        0.42650    0.79190    0.95050    1.000
    C16      C        0.48140    0.49080    0.78830    1.000
    C17      C        0.93460    0.21770    0.05270    1.000
    C18      C        0.25880    0.39720    0.03220    1.000
    H13      H        0.98120    0.21780    0.02230    1.000
    H14      H        0.44600    0.88690    0.95790    1.000
    H15      H        0.35430    0.25100    0.86560    1.000
    H16      H        0.52190    0.48700    0.72960    1.000
    H17      H        0.30810    0.33580    0.07270    1.000
    H18      H        0.02060    0.31830    0.76810    1.000
    Mn7      Mn       0.23947    0.90056    0.81509    1.000
    Mn8      Mn       0.74317    0.91538    0.36883    1.000
    O37      O        0.59858    0.83740    0.43979    1.000
    O38      O        0.18612    0.97120    0.52157    1.000
    O39      O        0.35165    0.92400    0.69750    1.000
    O40      O        0.12704    0.00190    0.71960    1.000
    O41      O        0.01900    0.21240    0.50203    1.000
    O42      O        0.19174    0.70810    0.75249    1.000
    O43      O        0.60660    0.62040    0.40936    1.000
    O44      O        0.15347    0.26330    0.60685    1.000
    O45      O        0.96123    0.00230    0.64117    1.000
    O46      O        0.18420    0.57530    0.63167    1.000
    O47      O        0.51290    0.88840    0.62341    1.000
    O48      O        0.34620    0.89260    0.46224    1.000
    C19      C        0.44770    0.86900    0.68600    1.000
    C20      C        0.16940    0.68280    0.67000    1.000
    C21      C        0.07350    0.29190    0.54950    1.000
    C22      C        0.01860    0.99080    0.71170    1.000
    C23      C        0.56540    0.71770    0.44730    1.000
    C24      C        0.24120    0.89720    0.46780    1.000
    H19      H        0.51880    0.71780    0.47770    1.000
    H20      H        0.05400    0.38690    0.54210    1.000
    H21      H        0.14570    0.75100    0.63440    1.000
    H22      H        0.97810    0.98700    0.77040    1.000
    H23      H        0.19190    0.83580    0.42730    1.000
    H24      H        0.47940    0.81830    0.73190    1.000
    Mn9      Mn       0.00000    0.50000    0.00000    1.000
    Mn10     Mn       0.50000    0.00000    0.50000    1.000
    Mn11     Mn       0.50000    0.50000    0.00000    1.000
    Mn12     Mn       0.00000    0.00000    0.50000    1.000
