# CIF file generated by openbabel 3.1.0, see https://openbabel.org
data_I
_chemical_name_common 'image0'
_cell_length_a 30.1786
_cell_length_b 39.4019
_cell_length_c 26.5077
_cell_angle_alpha 90
_cell_angle_beta 120.931
_cell_angle_gamma 90
_space_group_name_H-M_alt 'P 1'
_space_group_name_Hall 'P 1'
loop_
    _symmetry_equiv_pos_as_xyz
    x,y,z
loop_
    _atom_site_label
    _atom_site_type_symbol
    _atom_site_fract_x
    _atom_site_fract_y
    _atom_site_fract_z
    _atom_site_occupancy
    Cu1      Cu       0.11461    0.27343    0.62683    1.000
    Cu2      Cu       0.14620    0.22044    0.70021    1.000
    I1       I        0.28962    0.30109    0.98953    1.000
    I2       I        0.20690    0.42150    0.81220    1.000
    I3       I        0.36185    0.38087    0.91656    1.000
    I4       I        0.16631    0.37847    0.94796    1.000
    I5       I        0.59761    0.37615    0.36844    1.000
    I6       I        0.57534    0.42319    0.50230    1.000
    I7       I        0.40597    0.18577    0.75430    1.000
    I8       I        0.31462    0.28931    0.55110    1.000
    I9       I        0.44546    0.29866    0.77245    1.000
    I10      I        0.35135    0.19414    0.55918    1.000
    O1       O        0.14717    0.29978    0.69962    1.000
    O2       O        0.17541    0.25586    0.76117    1.000
    O3       O        0.31741    0.46489    0.10401    1.000
    O4       O        0.38609    0.46505    0.09331    1.000
    O5       O        0.45111    0.46516    0.21351    1.000
    O6       O        0.38191    0.46497    0.22398    1.000
    O7       O        0.61294    0.30472    0.62553    1.000
    O8       O        0.58566    0.26051    0.56459    1.000
    O9       O        0.18330    0.26594    0.63648    1.000
    O10      O        0.20988    0.22234    0.69747    1.000
    O11      O        0.57955    0.27318    0.69435    1.000
    O12      O        0.55157    0.22942    0.63149    1.000
    C1       C        0.19630    0.31142    0.80070    1.000
    C2       C        0.22330    0.29937    0.85780    1.000
    H1       H        0.22540    0.27590    0.86490    1.000
    C3       C        0.24700    0.32138    0.90410    1.000
    C4       C        0.24380    0.35632    0.89420    1.000
    C5       C        0.21570    0.36803    0.83730    1.000
    C6       C        0.19290    0.34536    0.79120    1.000
    H2       H        0.17470    0.35360    0.75250    1.000
    C7       C        0.17141    0.28696    0.74960    1.000
    C8       C        0.31750    0.42831    0.03367    1.000
    C9       C        0.26920    0.41651    0.01660    1.000
    H3       H        0.25220    0.42480    0.03530    1.000
    C10      C        0.24480    0.39276    0.97250    1.000
    C11      C        0.26990    0.38142    0.94410    1.000
    C12      C        0.31840    0.39398    0.96070    1.000
    C13      C        0.34320    0.41703    0.00600    1.000
    H4       H        0.37650    0.42490    0.01770    1.000
    C14      C        0.34270    0.45509    0.08113    1.000
    C15      C        0.45240    0.42922    0.28446    1.000
    C16      C        0.50020    0.41721    0.30100    1.000
    H5       H        0.51680    0.42450    0.28110    1.000
    C17      C        0.52490    0.39404    0.34730    1.000
    C18      C        0.50223    0.38281    0.37764    1.000
    C19      C        0.45310    0.39498    0.35940    1.000
    H6       H        0.43600    0.38710    0.37850    1.000
    C20      C        0.42860    0.41811    0.31450    1.000
    H7       H        0.39580    0.42640    0.30420    1.000
    C21      C        0.42640    0.45536    0.23680    1.000
    C22      C        0.56982    0.31509    0.52414    1.000
    C23      C        0.57957    0.34923    0.53326    1.000
    H8       H        0.60030    0.35760    0.57170    1.000
    C24      C        0.55869    0.37169    0.48546    1.000
    C25      C        0.52748    0.35956    0.42862    1.000
    C26      C        0.51824    0.32516    0.42063    1.000
    H9       H        0.49750    0.31660    0.38230    1.000
    C27      C        0.53867    0.30291    0.46741    1.000
    H10      H        0.53150    0.27960    0.46090    1.000
    C28      C        0.59135    0.29175    0.57584    1.000
    C29      C        0.26559    0.24379    0.66820    1.000
    C30      C        0.30440    0.22233    0.70240    1.000
    H11      H        0.30040    0.20720    0.72730    1.000
    C31      C        0.34950    0.22204    0.70170    1.000
    C32      C        0.35850    0.24451    0.66940    1.000
    C33      C        0.32020    0.26850    0.63810    1.000
    C34      C        0.27400    0.26699    0.63600    1.000
    H12      H        0.24760    0.28230    0.61190    1.000
    C35      C        0.21534    0.24361    0.66770    1.000
    C36      C        0.49796    0.24896    0.66530    1.000
    C37      C        0.45970    0.22782    0.62910    1.000
    H13      H        0.46420    0.21360    0.60360    1.000
    C38      C        0.41330    0.22670    0.62910    1.000
    C39      C        0.40740    0.24585    0.66870    1.000
    C40      C        0.44720    0.26750    0.70540    1.000
    C41      C        0.49210    0.26886    0.70250    1.000
    H14      H        0.51860    0.28400    0.72700    1.000
    C42      C        0.54757    0.25080    0.66400    1.000
    N1       N        0.09617    0.31608    0.57012    1.000
    C43      C        0.10270    0.34680    0.58460    1.000
    C44      C        0.09510    0.37690    0.55710    1.000
    C45      C        0.09190    0.37280    0.50330    1.000
    C46      C        0.09950    0.33970    0.48860    1.000
    C47      C        0.10330    0.31150    0.52340    1.000
    C48      C        0.06740    0.37000    0.49760    1.000
    C49      C        0.03740    0.34010    0.47750    1.000
    C50      C        0.05200    0.31250    0.51620    1.000
    N2       N        0.16618    0.17775    0.75729    1.000
    C51      C        0.18160    0.14860    0.74440    1.000
    H15      H        0.18430    0.14680    0.71070    1.000
    C52      C        0.19350    0.12100    0.78280    1.000
    H16      H        0.20130    0.10010    0.77220    1.000
    C53      C        0.19420    0.12280    0.83300    1.000
    H17      H        0.21220    0.10760    0.86440    1.000
    C54      C        0.16750    0.14760    0.83340    1.000
    H18      H        0.15250    0.14640    0.85690    1.000
    C55      C        0.16010    0.17590    0.80040    1.000
    H19      H        0.14970    0.19580    0.81100    1.000
    C56      C        0.25510    0.47200    0.18570    1.000
    H20      H        0.26740    0.45100    0.18090    1.000
    C57      C        0.21640    0.46940    0.20030    1.000
    H21      H        0.20460    0.44880    0.20690    1.000
    Cu3      Cu       0.61461    0.77343    0.62683    1.000
    Cu4      Cu       0.64620    0.72044    0.70021    1.000
    I11      I        0.78962    0.80109    0.98953    1.000
    I12      I        0.70690    0.92150    0.81220    1.000
    I13      I        0.86185    0.88087    0.91656    1.000
    I14      I        0.66631    0.87847    0.94796    1.000
    I15      I        0.09761    0.87615    0.36844    1.000
    I16      I        0.07534    0.92319    0.50230    1.000
    I17      I        0.90597    0.68577    0.75430    1.000
    I18      I        0.81462    0.78931    0.55110    1.000
    I19      I        0.94546    0.79866    0.77245    1.000
    I20      I        0.85135    0.69414    0.55918    1.000
    O13      O        0.64717    0.79978    0.69962    1.000
    O14      O        0.67541    0.75586    0.76117    1.000
    O15      O        0.81741    0.96489    0.10401    1.000
    O16      O        0.88609    0.96505    0.09331    1.000
    O17      O        0.95111    0.96516    0.21351    1.000
    O18      O        0.88191    0.96497    0.22398    1.000
    O19      O        0.11294    0.80472    0.62553    1.000
    O20      O        0.08566    0.76051    0.56459    1.000
    O21      O        0.68330    0.76594    0.63648    1.000
    O22      O        0.70988    0.72234    0.69747    1.000
    O23      O        0.07955    0.77318    0.69435    1.000
    O24      O        0.05157    0.72942    0.63149    1.000
    C58      C        0.69630    0.81142    0.80070    1.000
    C59      C        0.72330    0.79937    0.85780    1.000
    H22      H        0.72540    0.77590    0.86490    1.000
    C60      C        0.74700    0.82138    0.90410    1.000
    C61      C        0.74380    0.85632    0.89420    1.000
    C62      C        0.71570    0.86803    0.83730    1.000
    C63      C        0.69290    0.84536    0.79120    1.000
    H23      H        0.67470    0.85360    0.75250    1.000
    C64      C        0.67141    0.78696    0.74960    1.000
    C65      C        0.81750    0.92831    0.03367    1.000
    C66      C        0.76920    0.91651    0.01660    1.000
    H24      H        0.75220    0.92480    0.03530    1.000
    C67      C        0.74480    0.89276    0.97250    1.000
    C68      C        0.76990    0.88142    0.94410    1.000
    C69      C        0.81840    0.89398    0.96070    1.000
    C70      C        0.84320    0.91703    0.00600    1.000
    H25      H        0.87650    0.92490    0.01770    1.000
    C71      C        0.84270    0.95509    0.08113    1.000
    C72      C        0.95240    0.92922    0.28446    1.000
    C73      C        0.00020    0.91721    0.30100    1.000
    H26      H        0.01680    0.92450    0.28110    1.000
    C74      C        0.02490    0.89404    0.34730    1.000
    C75      C        0.00223    0.88281    0.37764    1.000
    C76      C        0.95310    0.89498    0.35940    1.000
    H27      H        0.93600    0.88710    0.37850    1.000
    C77      C        0.92860    0.91811    0.31450    1.000
    H28      H        0.89580    0.92640    0.30420    1.000
    C78      C        0.92640    0.95536    0.23680    1.000
    C79      C        0.06982    0.81509    0.52414    1.000
    C80      C        0.07957    0.84923    0.53326    1.000
    H29      H        0.10030    0.85760    0.57170    1.000
    C81      C        0.05869    0.87169    0.48546    1.000
    C82      C        0.02748    0.85956    0.42862    1.000
    C83      C        0.01824    0.82516    0.42063    1.000
    H30      H        0.99750    0.81660    0.38230    1.000
    C84      C        0.03867    0.80291    0.46741    1.000
    H31      H        0.03150    0.77960    0.46090    1.000
    C85      C        0.09135    0.79175    0.57584    1.000
    C86      C        0.76559    0.74379    0.66820    1.000
    C87      C        0.80440    0.72233    0.70240    1.000
    H32      H        0.80040    0.70720    0.72730    1.000
    C88      C        0.84950    0.72204    0.70170    1.000
    C89      C        0.85850    0.74451    0.66940    1.000
    C90      C        0.82020    0.76850    0.63810    1.000
    C91      C        0.77400    0.76699    0.63600    1.000
    H33      H        0.74760    0.78230    0.61190    1.000
    C92      C        0.71534    0.74361    0.66770    1.000
    C93      C        0.99796    0.74896    0.66530    1.000
    C94      C        0.95970    0.72782    0.62910    1.000
    H34      H        0.96420    0.71360    0.60360    1.000
    C95      C        0.91330    0.72670    0.62910    1.000
    C96      C        0.90740    0.74585    0.66870    1.000
    C97      C        0.94720    0.76750    0.70540    1.000
    C98      C        0.99210    0.76886    0.70250    1.000
    H35      H        0.01860    0.78400    0.72700    1.000
    C99      C        0.04757    0.75080    0.66400    1.000
    N3       N        0.59617    0.81608    0.57012    1.000
    C100     C        0.60270    0.84680    0.58460    1.000
    C101     C        0.59510    0.87690    0.55710    1.000
    C102     C        0.59190    0.87280    0.50330    1.000
    C103     C        0.59950    0.83970    0.48860    1.000
    C104     C        0.60330    0.81150    0.52340    1.000
    C105     C        0.56740    0.87000    0.49760    1.000
    C106     C        0.53740    0.84010    0.47750    1.000
    C107     C        0.55200    0.81250    0.51620    1.000
    N4       N        0.66618    0.67775    0.75729    1.000
    C108     C        0.68160    0.64860    0.74440    1.000
    H36      H        0.68430    0.64680    0.71070    1.000
    C109     C        0.69350    0.62100    0.78280    1.000
    H37      H        0.70130    0.60010    0.77220    1.000
    C110     C        0.69420    0.62280    0.83300    1.000
    H38      H        0.71220    0.60760    0.86440    1.000
    C111     C        0.66750    0.64760    0.83340    1.000
    H39      H        0.65250    0.64640    0.85690    1.000
    C112     C        0.66010    0.67590    0.80040    1.000
    H40      H        0.64970    0.69580    0.81100    1.000
    C113     C        0.75510    0.97200    0.18570    1.000
    H41      H        0.76740    0.95100    0.18090    1.000
    C114     C        0.71640    0.96940    0.20030    1.000
    H42      H        0.70460    0.94880    0.20690    1.000
    Cu5      Cu       0.11461    0.72657    0.62683    1.000
    Cu6      Cu       0.14620    0.77956    0.70021    1.000
    I21      I        0.28962    0.69891    0.98953    1.000
    I22      I        0.20690    0.57850    0.81220    1.000
    I23      I        0.36185    0.61913    0.91656    1.000
    I24      I        0.16631    0.62153    0.94796    1.000
    I25      I        0.59761    0.62385    0.36844    1.000
    I26      I        0.57534    0.57681    0.50230    1.000
    I27      I        0.40597    0.81423    0.75430    1.000
    I28      I        0.31462    0.71069    0.55110    1.000
    I29      I        0.44546    0.70134    0.77245    1.000
    I30      I        0.35135    0.80586    0.55918    1.000
    O25      O        0.14717    0.70022    0.69962    1.000
    O26      O        0.17541    0.74414    0.76117    1.000
    O27      O        0.31741    0.53511    0.10401    1.000
    O28      O        0.38609    0.53495    0.09331    1.000
    O29      O        0.45111    0.53484    0.21351    1.000
    O30      O        0.38191    0.53503    0.22398    1.000
    O31      O        0.61294    0.69528    0.62553    1.000
    O32      O        0.58566    0.73949    0.56459    1.000
    O33      O        0.18330    0.73406    0.63648    1.000
    O34      O        0.20988    0.77766    0.69747    1.000
    O35      O        0.57955    0.72682    0.69435    1.000
    O36      O        0.55157    0.77058    0.63149    1.000
    C115     C        0.19630    0.68858    0.80070    1.000
    C116     C        0.22330    0.70063    0.85780    1.000
    H43      H        0.22540    0.72410    0.86490    1.000
    C117     C        0.24700    0.67862    0.90410    1.000
    C118     C        0.24380    0.64368    0.89420    1.000
    C119     C        0.21570    0.63197    0.83730    1.000
    C120     C        0.19290    0.65464    0.79120    1.000
    H44      H        0.17470    0.64640    0.75250    1.000
    C121     C        0.17141    0.71304    0.74960    1.000
    C122     C        0.31750    0.57169    0.03367    1.000
    C123     C        0.26920    0.58349    0.01660    1.000
    H45      H        0.25220    0.57520    0.03530    1.000
    C124     C        0.24480    0.60724    0.97250    1.000
    C125     C        0.26990    0.61858    0.94410    1.000
    C126     C        0.31840    0.60602    0.96070    1.000
    C127     C        0.34320    0.58297    0.00600    1.000
    H46      H        0.37650    0.57510    0.01770    1.000
    C128     C        0.34270    0.54491    0.08113    1.000
    C129     C        0.45240    0.57078    0.28446    1.000
    C130     C        0.50020    0.58279    0.30100    1.000
    H47      H        0.51680    0.57550    0.28110    1.000
    C131     C        0.52490    0.60596    0.34730    1.000
    C132     C        0.50223    0.61719    0.37764    1.000
    C133     C        0.45310    0.60502    0.35940    1.000
    H48      H        0.43600    0.61290    0.37850    1.000
    C134     C        0.42860    0.58189    0.31450    1.000
    H49      H        0.39580    0.57360    0.30420    1.000
    C135     C        0.42640    0.54464    0.23680    1.000
    C136     C        0.56982    0.68491    0.52414    1.000
    C137     C        0.57957    0.65077    0.53326    1.000
    H50      H        0.60030    0.64240    0.57170    1.000
    C138     C        0.55869    0.62831    0.48546    1.000
    C139     C        0.52748    0.64044    0.42862    1.000
    C140     C        0.51824    0.67484    0.42063    1.000
    H51      H        0.49750    0.68340    0.38230    1.000
    C141     C        0.53867    0.69709    0.46741    1.000
    H52      H        0.53150    0.72040    0.46090    1.000
    C142     C        0.59135    0.70825    0.57584    1.000
    C143     C        0.26559    0.75621    0.66820    1.000
    C144     C        0.30440    0.77767    0.70240    1.000
    H53      H        0.30040    0.79280    0.72730    1.000
    C145     C        0.34950    0.77796    0.70170    1.000
    C146     C        0.35850    0.75549    0.66940    1.000
    C147     C        0.32020    0.73150    0.63810    1.000
    C148     C        0.27400    0.73301    0.63600    1.000
    H54      H        0.24760    0.71770    0.61190    1.000
    C149     C        0.21534    0.75639    0.66770    1.000
    C150     C        0.49796    0.75104    0.66530    1.000
    C151     C        0.45970    0.77218    0.62910    1.000
    H55      H        0.46420    0.78640    0.60360    1.000
    C152     C        0.41330    0.77330    0.62910    1.000
    C153     C        0.40740    0.75415    0.66870    1.000
    C154     C        0.44720    0.73250    0.70540    1.000
    C155     C        0.49210    0.73114    0.70250    1.000
    H56      H        0.51860    0.71600    0.72700    1.000
    C156     C        0.54757    0.74920    0.66400    1.000
    N5       N        0.09617    0.68392    0.57012    1.000
    C157     C        0.10270    0.65320    0.58460    1.000
    C158     C        0.09510    0.62310    0.55710    1.000
    C159     C        0.09190    0.62720    0.50330    1.000
    C160     C        0.09950    0.66030    0.48860    1.000
    C161     C        0.10330    0.68850    0.52340    1.000
    C162     C        0.06740    0.63000    0.49760    1.000
    C163     C        0.03740    0.65990    0.47750    1.000
    C164     C        0.05200    0.68750    0.51620    1.000
    N6       N        0.16618    0.82225    0.75729    1.000
    C165     C        0.18160    0.85140    0.74440    1.000
    H57      H        0.18430    0.85320    0.71070    1.000
    C166     C        0.19350    0.87900    0.78280    1.000
    H58      H        0.20130    0.89990    0.77220    1.000
    C167     C        0.19420    0.87720    0.83300    1.000
    H59      H        0.21220    0.89240    0.86440    1.000
    C168     C        0.16750    0.85240    0.83340    1.000
    H60      H        0.15250    0.85360    0.85690    1.000
    C169     C        0.16010    0.82410    0.80040    1.000
    H61      H        0.14970    0.80420    0.81100    1.000
    C170     C        0.25510    0.52800    0.18570    1.000
    H62      H        0.26740    0.54900    0.18090    1.000
    C171     C        0.21640    0.53060    0.20030    1.000
    H63      H        0.20460    0.55120    0.20690    1.000
    Cu7      Cu       0.61461    0.22657    0.62683    1.000
    Cu8      Cu       0.64620    0.27956    0.70021    1.000
    I31      I        0.78962    0.19891    0.98953    1.000
    I32      I        0.70690    0.07850    0.81220    1.000
    I33      I        0.86185    0.11913    0.91656    1.000
    I34      I        0.66631    0.12153    0.94796    1.000
    I35      I        0.09761    0.12385    0.36844    1.000
    I36      I        0.07534    0.07681    0.50230    1.000
    I37      I        0.90597    0.31423    0.75430    1.000
    I38      I        0.81462    0.21069    0.55110    1.000
    I39      I        0.94546    0.20134    0.77245    1.000
    I40      I        0.85135    0.30586    0.55918    1.000
    O37      O        0.64717    0.20022    0.69962    1.000
    O38      O        0.67541    0.24414    0.76117    1.000
    O39      O        0.81741    0.03511    0.10401    1.000
    O40      O        0.88609    0.03495    0.09331    1.000
    O41      O        0.95111    0.03484    0.21351    1.000
    O42      O        0.88191    0.03503    0.22398    1.000
    O43      O        0.11294    0.19528    0.62553    1.000
    O44      O        0.08566    0.23949    0.56459    1.000
    O45      O        0.68330    0.23406    0.63648    1.000
    O46      O        0.70988    0.27766    0.69747    1.000
    O47      O        0.07955    0.22682    0.69435    1.000
    O48      O        0.05157    0.27058    0.63149    1.000
    C172     C        0.69630    0.18858    0.80070    1.000
    C173     C        0.72330    0.20063    0.85780    1.000
    H64      H        0.72540    0.22410    0.86490    1.000
    C174     C        0.74700    0.17862    0.90410    1.000
    C175     C        0.74380    0.14368    0.89420    1.000
    C176     C        0.71570    0.13197    0.83730    1.000
    C177     C        0.69290    0.15464    0.79120    1.000
    H65      H        0.67470    0.14640    0.75250    1.000
    C178     C        0.67141    0.21304    0.74960    1.000
    C179     C        0.81750    0.07169    0.03367    1.000
    C180     C        0.76920    0.08349    0.01660    1.000
    H66      H        0.75220    0.07520    0.03530    1.000
    C181     C        0.74480    0.10724    0.97250    1.000
    C182     C        0.76990    0.11858    0.94410    1.000
    C183     C        0.81840    0.10602    0.96070    1.000
    C184     C        0.84320    0.08297    0.00600    1.000
    H67      H        0.87650    0.07510    0.01770    1.000
    C185     C        0.84270    0.04491    0.08113    1.000
    C186     C        0.95240    0.07078    0.28446    1.000
    C187     C        0.00020    0.08279    0.30100    1.000
    H68      H        0.01680    0.07550    0.28110    1.000
    C188     C        0.02490    0.10596    0.34730    1.000
    C189     C        0.00223    0.11719    0.37764    1.000
    C190     C        0.95310    0.10502    0.35940    1.000
    H69      H        0.93600    0.11290    0.37850    1.000
    C191     C        0.92860    0.08189    0.31450    1.000
    H70      H        0.89580    0.07360    0.30420    1.000
    C192     C        0.92640    0.04464    0.23680    1.000
    C193     C        0.06982    0.18491    0.52414    1.000
    C194     C        0.07957    0.15077    0.53326    1.000
    H71      H        0.10030    0.14240    0.57170    1.000
    C195     C        0.05869    0.12831    0.48546    1.000
    C196     C        0.02748    0.14044    0.42862    1.000
    C197     C        0.01824    0.17484    0.42063    1.000
    H72      H        0.99750    0.18340    0.38230    1.000
    C198     C        0.03867    0.19709    0.46741    1.000
    H73      H        0.03150    0.22040    0.46090    1.000
    C199     C        0.09135    0.20825    0.57584    1.000
    C200     C        0.76559    0.25621    0.66820    1.000
    C201     C        0.80440    0.27767    0.70240    1.000
    H74      H        0.80040    0.29280    0.72730    1.000
    C202     C        0.84950    0.27796    0.70170    1.000
    C203     C        0.85850    0.25549    0.66940    1.000
    C204     C        0.82020    0.23150    0.63810    1.000
    C205     C        0.77400    0.23301    0.63600    1.000
    H75      H        0.74760    0.21770    0.61190    1.000
    C206     C        0.71534    0.25639    0.66770    1.000
    C207     C        0.99796    0.25104    0.66530    1.000
    C208     C        0.95970    0.27218    0.62910    1.000
    H76      H        0.96420    0.28640    0.60360    1.000
    C209     C        0.91330    0.27330    0.62910    1.000
    C210     C        0.90740    0.25415    0.66870    1.000
    C211     C        0.94720    0.23250    0.70540    1.000
    C212     C        0.99210    0.23114    0.70250    1.000
    H77      H        0.01860    0.21600    0.72700    1.000
    C213     C        0.04757    0.24920    0.66400    1.000
    N7       N        0.59617    0.18392    0.57012    1.000
    C214     C        0.60270    0.15320    0.58460    1.000
    C215     C        0.59510    0.12310    0.55710    1.000
    C216     C        0.59190    0.12720    0.50330    1.000
    C217     C        0.59950    0.16030    0.48860    1.000
    C218     C        0.60330    0.18850    0.52340    1.000
    C219     C        0.56740    0.13000    0.49760    1.000
    C220     C        0.53740    0.15990    0.47750    1.000
    C221     C        0.55200    0.18750    0.51620    1.000
    N8       N        0.66618    0.32225    0.75729    1.000
    C222     C        0.68160    0.35140    0.74440    1.000
    H78      H        0.68430    0.35320    0.71070    1.000
    C223     C        0.69350    0.37900    0.78280    1.000
    H79      H        0.70130    0.39990    0.77220    1.000
    C224     C        0.69420    0.37720    0.83300    1.000
    H80      H        0.71220    0.39240    0.86440    1.000
    C225     C        0.66750    0.35240    0.83340    1.000
    H81      H        0.65250    0.35360    0.85690    1.000
    C226     C        0.66010    0.32410    0.80040    1.000
    H82      H        0.64970    0.30420    0.81100    1.000
    C227     C        0.75510    0.02800    0.18570    1.000
    H83      H        0.76740    0.04900    0.18090    1.000
    C228     C        0.71640    0.03060    0.20030    1.000
    H84      H        0.70460    0.05120    0.20690    1.000
    Cu9      Cu       0.42514    0.50000    0.15228    1.000
    Cu10     Cu       0.34339    0.50000    0.16526    1.000
    N9       N        0.27800    0.50000    0.17720    1.000
    C229     C        0.19850    0.50000    0.20390    1.000
    H85      H        0.17010    0.50000    0.20940    1.000
    Cu11     Cu       0.92514    0.00000    0.15228    1.000
    Cu12     Cu       0.84339    0.00000    0.16526    1.000
    N10      N        0.77800    0.00000    0.17720    1.000
    C230     C        0.69850    0.00000    0.20390    1.000
    H86      H        0.67010    0.00000    0.20940    1.000
    Cu13     Cu       0.88539    0.27343    0.37317    1.000
    Cu14     Cu       0.85380    0.22044    0.29979    1.000
    I41      I        0.71038    0.30109    0.01047    1.000
    I42      I        0.79310    0.42150    0.18780    1.000
    I43      I        0.63815    0.38087    0.08344    1.000
    I44      I        0.83369    0.37847    0.05204    1.000
    I45      I        0.40239    0.37615    0.63156    1.000
    I46      I        0.42466    0.42319    0.49770    1.000
    I47      I        0.59403    0.18577    0.24570    1.000
    I48      I        0.68538    0.28931    0.44890    1.000
    I49      I        0.55454    0.29866    0.22755    1.000
    I50      I        0.64865    0.19414    0.44082    1.000
    O49      O        0.85283    0.29978    0.30038    1.000
    O50      O        0.82459    0.25586    0.23883    1.000
    O51      O        0.68259    0.46489    0.89599    1.000
    O52      O        0.61391    0.46505    0.90669    1.000
    O53      O        0.54889    0.46516    0.78649    1.000
    O54      O        0.61809    0.46497    0.77602    1.000
    O55      O        0.38706    0.30472    0.37447    1.000
    O56      O        0.41434    0.26051    0.43541    1.000
    O57      O        0.81670    0.26594    0.36352    1.000
    O58      O        0.79012    0.22234    0.30253    1.000
    O59      O        0.42045    0.27318    0.30565    1.000
    O60      O        0.44843    0.22942    0.36851    1.000
    C231     C        0.80370    0.31142    0.19930    1.000
    C232     C        0.77670    0.29937    0.14220    1.000
    H87      H        0.77460    0.27590    0.13510    1.000
    C233     C        0.75300    0.32138    0.09590    1.000
    C234     C        0.75620    0.35632    0.10580    1.000
    C235     C        0.78430    0.36803    0.16270    1.000
    C236     C        0.80710    0.34536    0.20880    1.000
    H88      H        0.82530    0.35360    0.24750    1.000
    C237     C        0.82859    0.28696    0.25040    1.000
    C238     C        0.68250    0.42831    0.96633    1.000
    C239     C        0.73080    0.41651    0.98340    1.000
    H89      H        0.74780    0.42480    0.96470    1.000
    C240     C        0.75520    0.39276    0.02750    1.000
    C241     C        0.73010    0.38142    0.05590    1.000
    C242     C        0.68160    0.39398    0.03930    1.000
    C243     C        0.65680    0.41703    0.99400    1.000
    H90      H        0.62350    0.42490    0.98230    1.000
    C244     C        0.65730    0.45509    0.91887    1.000
    C245     C        0.54760    0.42922    0.71554    1.000
    C246     C        0.49980    0.41721    0.69900    1.000
    H91      H        0.48320    0.42450    0.71890    1.000
    C247     C        0.47510    0.39404    0.65270    1.000
    C248     C        0.49777    0.38281    0.62236    1.000
    C249     C        0.54690    0.39498    0.64060    1.000
    H92      H        0.56400    0.38710    0.62150    1.000
    C250     C        0.57140    0.41811    0.68550    1.000
    H93      H        0.60420    0.42640    0.69580    1.000
    C251     C        0.57360    0.45536    0.76320    1.000
    C252     C        0.43018    0.31509    0.47586    1.000
    C253     C        0.42043    0.34923    0.46674    1.000
    H94      H        0.39970    0.35760    0.42830    1.000
    C254     C        0.44131    0.37169    0.51454    1.000
    C255     C        0.47252    0.35956    0.57138    1.000
    C256     C        0.48176    0.32516    0.57937    1.000
    H95      H        0.50250    0.31660    0.61770    1.000
    C257     C        0.46133    0.30291    0.53259    1.000
    H96      H        0.46850    0.27960    0.53910    1.000
    C258     C        0.40865    0.29175    0.42416    1.000
    C259     C        0.73441    0.24379    0.33180    1.000
    C260     C        0.69560    0.22233    0.29760    1.000
    H97      H        0.69960    0.20720    0.27270    1.000
    C261     C        0.65050    0.22204    0.29830    1.000
    C262     C        0.64150    0.24451    0.33060    1.000
    C263     C        0.67980    0.26850    0.36190    1.000
    C264     C        0.72600    0.26699    0.36400    1.000
    H98      H        0.75240    0.28230    0.38810    1.000
    C265     C        0.78466    0.24361    0.33230    1.000
    C266     C        0.50204    0.24896    0.33470    1.000
    C267     C        0.54030    0.22782    0.37090    1.000
    H99      H        0.53580    0.21360    0.39640    1.000
    C268     C        0.58670    0.22670    0.37090    1.000
    C269     C        0.59260    0.24585    0.33130    1.000
    C270     C        0.55280    0.26750    0.29460    1.000
    C271     C        0.50790    0.26886    0.29750    1.000
    H100     H        0.48140    0.28400    0.27300    1.000
    C272     C        0.45243    0.25080    0.33600    1.000
    N11      N        0.90383    0.31608    0.42988    1.000
    C273     C        0.89730    0.34680    0.41540    1.000
    C274     C        0.90490    0.37690    0.44290    1.000
    C275     C        0.90810    0.37280    0.49670    1.000
    C276     C        0.90050    0.33970    0.51140    1.000
    C277     C        0.89670    0.31150    0.47660    1.000
    C278     C        0.93260    0.37000    0.50240    1.000
    C279     C        0.96260    0.34010    0.52250    1.000
    C280     C        0.94800    0.31250    0.48380    1.000
    N12      N        0.83382    0.17775    0.24271    1.000
    C281     C        0.81840    0.14860    0.25560    1.000
    H101     H        0.81570    0.14680    0.28930    1.000
    C282     C        0.80650    0.12100    0.21720    1.000
    H102     H        0.79870    0.10010    0.22780    1.000
    C283     C        0.80580    0.12280    0.16700    1.000
    H103     H        0.78780    0.10760    0.13560    1.000
    C284     C        0.83250    0.14760    0.16660    1.000
    H104     H        0.84750    0.14640    0.14310    1.000
    C285     C        0.83990    0.17590    0.19960    1.000
    H105     H        0.85030    0.19580    0.18900    1.000
    C286     C        0.74490    0.47200    0.81430    1.000
    H106     H        0.73260    0.45100    0.81910    1.000
    C287     C        0.78360    0.46940    0.79970    1.000
    H107     H        0.79540    0.44880    0.79310    1.000
    Cu15     Cu       0.38539    0.77343    0.37317    1.000
    Cu16     Cu       0.35380    0.72044    0.29979    1.000
    I51      I        0.21038    0.80109    0.01047    1.000
    I52      I        0.29310    0.92150    0.18780    1.000
    I53      I        0.13815    0.88087    0.08344    1.000
    I54      I        0.33369    0.87847    0.05204    1.000
    I55      I        0.90239    0.87615    0.63156    1.000
    I56      I        0.92466    0.92319    0.49770    1.000
    I57      I        0.09403    0.68577    0.24570    1.000
    I58      I        0.18538    0.78931    0.44890    1.000
    I59      I        0.05454    0.79866    0.22755    1.000
    I60      I        0.14865    0.69414    0.44082    1.000
    O61      O        0.35283    0.79978    0.30038    1.000
    O62      O        0.32459    0.75586    0.23883    1.000
    O63      O        0.18259    0.96489    0.89599    1.000
    O64      O        0.11391    0.96505    0.90669    1.000
    O65      O        0.04889    0.96516    0.78649    1.000
    O66      O        0.11809    0.96497    0.77602    1.000
    O67      O        0.88706    0.80472    0.37447    1.000
    O68      O        0.91434    0.76051    0.43541    1.000
    O69      O        0.31670    0.76594    0.36352    1.000
    O70      O        0.29012    0.72234    0.30253    1.000
    O71      O        0.92045    0.77318    0.30565    1.000
    O72      O        0.94843    0.72942    0.36851    1.000
    C288     C        0.30370    0.81142    0.19930    1.000
    C289     C        0.27670    0.79937    0.14220    1.000
    H108     H        0.27460    0.77590    0.13510    1.000
    C290     C        0.25300    0.82138    0.09590    1.000
    C291     C        0.25620    0.85632    0.10580    1.000
    C292     C        0.28430    0.86803    0.16270    1.000
    C293     C        0.30710    0.84536    0.20880    1.000
    H109     H        0.32530    0.85360    0.24750    1.000
    C294     C        0.32859    0.78696    0.25040    1.000
    C295     C        0.18250    0.92831    0.96633    1.000
    C296     C        0.23080    0.91651    0.98340    1.000
    H110     H        0.24780    0.92480    0.96470    1.000
    C297     C        0.25520    0.89276    0.02750    1.000
    C298     C        0.23010    0.88142    0.05590    1.000
    C299     C        0.18160    0.89398    0.03930    1.000
    C300     C        0.15680    0.91703    0.99400    1.000
    H111     H        0.12350    0.92490    0.98230    1.000
    C301     C        0.15730    0.95509    0.91887    1.000
    C302     C        0.04760    0.92922    0.71554    1.000
    C303     C        0.99980    0.91721    0.69900    1.000
    H112     H        0.98320    0.92450    0.71890    1.000
    C304     C        0.97510    0.89404    0.65270    1.000
    C305     C        0.99777    0.88281    0.62236    1.000
    C306     C        0.04690    0.89498    0.64060    1.000
    H113     H        0.06400    0.88710    0.62150    1.000
    C307     C        0.07140    0.91811    0.68550    1.000
    H114     H        0.10420    0.92640    0.69580    1.000
    C308     C        0.07360    0.95536    0.76320    1.000
    C309     C        0.93018    0.81509    0.47586    1.000
    C310     C        0.92043    0.84923    0.46674    1.000
    H115     H        0.89970    0.85760    0.42830    1.000
    C311     C        0.94131    0.87169    0.51454    1.000
    C312     C        0.97252    0.85956    0.57138    1.000
    C313     C        0.98176    0.82516    0.57937    1.000
    H116     H        0.00250    0.81660    0.61770    1.000
    C314     C        0.96133    0.80291    0.53259    1.000
    H117     H        0.96850    0.77960    0.53910    1.000
    C315     C        0.90865    0.79175    0.42416    1.000
    C316     C        0.23441    0.74379    0.33180    1.000
    C317     C        0.19560    0.72233    0.29760    1.000
    H118     H        0.19960    0.70720    0.27270    1.000
    C318     C        0.15050    0.72204    0.29830    1.000
    C319     C        0.14150    0.74451    0.33060    1.000
    C320     C        0.17980    0.76850    0.36190    1.000
    C321     C        0.22600    0.76699    0.36400    1.000
    H119     H        0.25240    0.78230    0.38810    1.000
    C322     C        0.28466    0.74361    0.33230    1.000
    C323     C        0.00204    0.74896    0.33470    1.000
    C324     C        0.04030    0.72782    0.37090    1.000
    H120     H        0.03580    0.71360    0.39640    1.000
    C325     C        0.08670    0.72670    0.37090    1.000
    C326     C        0.09260    0.74585    0.33130    1.000
    C327     C        0.05280    0.76750    0.29460    1.000
    C328     C        0.00790    0.76886    0.29750    1.000
    H121     H        0.98140    0.78400    0.27300    1.000
    C329     C        0.95243    0.75080    0.33600    1.000
    N13      N        0.40383    0.81608    0.42988    1.000
    C330     C        0.39730    0.84680    0.41540    1.000
    C331     C        0.40490    0.87690    0.44290    1.000
    C332     C        0.40810    0.87280    0.49670    1.000
    C333     C        0.40050    0.83970    0.51140    1.000
    C334     C        0.39670    0.81150    0.47660    1.000
    C335     C        0.43260    0.87000    0.50240    1.000
    C336     C        0.46260    0.84010    0.52250    1.000
    C337     C        0.44800    0.81250    0.48380    1.000
    N14      N        0.33382    0.67775    0.24271    1.000
    C338     C        0.31840    0.64860    0.25560    1.000
    H122     H        0.31570    0.64680    0.28930    1.000
    C339     C        0.30650    0.62100    0.21720    1.000
    H123     H        0.29870    0.60010    0.22780    1.000
    C340     C        0.30580    0.62280    0.16700    1.000
    H124     H        0.28780    0.60760    0.13560    1.000
    C341     C        0.33250    0.64760    0.16660    1.000
    H125     H        0.34750    0.64640    0.14310    1.000
    C342     C        0.33990    0.67590    0.19960    1.000
    H126     H        0.35030    0.69580    0.18900    1.000
    C343     C        0.24490    0.97200    0.81430    1.000
    H127     H        0.23260    0.95100    0.81910    1.000
    C344     C        0.28360    0.96940    0.79970    1.000
    H128     H        0.29540    0.94880    0.79310    1.000
    Cu17     Cu       0.88539    0.72657    0.37317    1.000
    Cu18     Cu       0.85380    0.77956    0.29979    1.000
    I61      I        0.71038    0.69891    0.01047    1.000
    I62      I        0.79310    0.57850    0.18780    1.000
    I63      I        0.63815    0.61913    0.08344    1.000
    I64      I        0.83369    0.62153    0.05204    1.000
    I65      I        0.40239    0.62385    0.63156    1.000
    I66      I        0.42466    0.57681    0.49770    1.000
    I67      I        0.59403    0.81423    0.24570    1.000
    I68      I        0.68538    0.71069    0.44890    1.000
    I69      I        0.55454    0.70134    0.22755    1.000
    I70      I        0.64865    0.80586    0.44082    1.000
    O73      O        0.85283    0.70022    0.30038    1.000
    O74      O        0.82459    0.74414    0.23883    1.000
    O75      O        0.68259    0.53511    0.89599    1.000
    O76      O        0.61391    0.53495    0.90669    1.000
    O77      O        0.54889    0.53484    0.78649    1.000
    O78      O        0.61809    0.53503    0.77602    1.000
    O79      O        0.38706    0.69528    0.37447    1.000
    O80      O        0.41434    0.73949    0.43541    1.000
    O81      O        0.81670    0.73406    0.36352    1.000
    O82      O        0.79012    0.77766    0.30253    1.000
    O83      O        0.42045    0.72682    0.30565    1.000
    O84      O        0.44843    0.77058    0.36851    1.000
    C345     C        0.80370    0.68858    0.19930    1.000
    C346     C        0.77670    0.70063    0.14220    1.000
    H129     H        0.77460    0.72410    0.13510    1.000
    C347     C        0.75300    0.67862    0.09590    1.000
    C348     C        0.75620    0.64368    0.10580    1.000
    C349     C        0.78430    0.63197    0.16270    1.000
    C350     C        0.80710    0.65464    0.20880    1.000
    H130     H        0.82530    0.64640    0.24750    1.000
    C351     C        0.82859    0.71304    0.25040    1.000
    C352     C        0.68250    0.57169    0.96633    1.000
    C353     C        0.73080    0.58349    0.98340    1.000
    H131     H        0.74780    0.57520    0.96470    1.000
    C354     C        0.75520    0.60724    0.02750    1.000
    C355     C        0.73010    0.61858    0.05590    1.000
    C356     C        0.68160    0.60602    0.03930    1.000
    C357     C        0.65680    0.58297    0.99400    1.000
    H132     H        0.62350    0.57510    0.98230    1.000
    C358     C        0.65730    0.54491    0.91887    1.000
    C359     C        0.54760    0.57078    0.71554    1.000
    C360     C        0.49980    0.58279    0.69900    1.000
    H133     H        0.48320    0.57550    0.71890    1.000
    C361     C        0.47510    0.60596    0.65270    1.000
    C362     C        0.49777    0.61719    0.62236    1.000
    C363     C        0.54690    0.60502    0.64060    1.000
    H134     H        0.56400    0.61290    0.62150    1.000
    C364     C        0.57140    0.58189    0.68550    1.000
    H135     H        0.60420    0.57360    0.69580    1.000
    C365     C        0.57360    0.54464    0.76320    1.000
    C366     C        0.43018    0.68491    0.47586    1.000
    C367     C        0.42043    0.65077    0.46674    1.000
    H136     H        0.39970    0.64240    0.42830    1.000
    C368     C        0.44131    0.62831    0.51454    1.000
    C369     C        0.47252    0.64044    0.57138    1.000
    C370     C        0.48176    0.67484    0.57937    1.000
    H137     H        0.50250    0.68340    0.61770    1.000
    C371     C        0.46133    0.69709    0.53259    1.000
    H138     H        0.46850    0.72040    0.53910    1.000
    C372     C        0.40865    0.70825    0.42416    1.000
    C373     C        0.73441    0.75621    0.33180    1.000
    C374     C        0.69560    0.77767    0.29760    1.000
    H139     H        0.69960    0.79280    0.27270    1.000
    C375     C        0.65050    0.77796    0.29830    1.000
    C376     C        0.64150    0.75549    0.33060    1.000
    C377     C        0.67980    0.73150    0.36190    1.000
    C378     C        0.72600    0.73301    0.36400    1.000
    H140     H        0.75240    0.71770    0.38810    1.000
    C379     C        0.78466    0.75639    0.33230    1.000
    C380     C        0.50204    0.75104    0.33470    1.000
    C381     C        0.54030    0.77218    0.37090    1.000
    H141     H        0.53580    0.78640    0.39640    1.000
    C382     C        0.58670    0.77330    0.37090    1.000
    C383     C        0.59260    0.75415    0.33130    1.000
    C384     C        0.55280    0.73250    0.29460    1.000
    C385     C        0.50790    0.73114    0.29750    1.000
    H142     H        0.48140    0.71600    0.27300    1.000
    C386     C        0.45243    0.74920    0.33600    1.000
    N15      N        0.90383    0.68392    0.42988    1.000
    C387     C        0.89730    0.65320    0.41540    1.000
    C388     C        0.90490    0.62310    0.44290    1.000
    C389     C        0.90810    0.62720    0.49670    1.000
    C390     C        0.90050    0.66030    0.51140    1.000
    C391     C        0.89670    0.68850    0.47660    1.000
    C392     C        0.93260    0.63000    0.50240    1.000
    C393     C        0.96260    0.65990    0.52250    1.000
    C394     C        0.94800    0.68750    0.48380    1.000
    N16      N        0.83382    0.82225    0.24271    1.000
    C395     C        0.81840    0.85140    0.25560    1.000
    H143     H        0.81570    0.85320    0.28930    1.000
    C396     C        0.80650    0.87900    0.21720    1.000
    H144     H        0.79870    0.89990    0.22780    1.000
    C397     C        0.80580    0.87720    0.16700    1.000
    H145     H        0.78780    0.89240    0.13560    1.000
    C398     C        0.83250    0.85240    0.16660    1.000
    H146     H        0.84750    0.85360    0.14310    1.000
    C399     C        0.83990    0.82410    0.19960    1.000
    H147     H        0.85030    0.80420    0.18900    1.000
    C400     C        0.74490    0.52800    0.81430    1.000
    H148     H        0.73260    0.54900    0.81910    1.000
    C401     C        0.78360    0.53060    0.79970    1.000
    H149     H        0.79540    0.55120    0.79310    1.000
    Cu19     Cu       0.38539    0.22657    0.37317    1.000
    Cu20     Cu       0.35380    0.27956    0.29979    1.000
    I71      I        0.21038    0.19891    0.01047    1.000
    I72      I        0.29310    0.07850    0.18780    1.000
    I73      I        0.13815    0.11913    0.08344    1.000
    I74      I        0.33369    0.12153    0.05204    1.000
    I75      I        0.90239    0.12385    0.63156    1.000
    I76      I        0.92466    0.07681    0.49770    1.000
    I77      I        0.09403    0.31423    0.24570    1.000
    I78      I        0.18538    0.21069    0.44890    1.000
    I79      I        0.05454    0.20134    0.22755    1.000
    I80      I        0.14865    0.30586    0.44082    1.000
    O85      O        0.35283    0.20022    0.30038    1.000
    O86      O        0.32459    0.24414    0.23883    1.000
    O87      O        0.18259    0.03511    0.89599    1.000
    O88      O        0.11391    0.03495    0.90669    1.000
    O89      O        0.04889    0.03484    0.78649    1.000
    O90      O        0.11809    0.03503    0.77602    1.000
    O91      O        0.88706    0.19528    0.37447    1.000
    O92      O        0.91434    0.23949    0.43541    1.000
    O93      O        0.31670    0.23406    0.36352    1.000
    O94      O        0.29012    0.27766    0.30253    1.000
    O95      O        0.92045    0.22682    0.30565    1.000
    O96      O        0.94843    0.27058    0.36851    1.000
    C402     C        0.30370    0.18858    0.19930    1.000
    C403     C        0.27670    0.20063    0.14220    1.000
    H150     H        0.27460    0.22410    0.13510    1.000
    C404     C        0.25300    0.17862    0.09590    1.000
    C405     C        0.25620    0.14368    0.10580    1.000
    C406     C        0.28430    0.13197    0.16270    1.000
    C407     C        0.30710    0.15464    0.20880    1.000
    H151     H        0.32530    0.14640    0.24750    1.000
    C408     C        0.32859    0.21304    0.25040    1.000
    C409     C        0.18250    0.07169    0.96633    1.000
    C410     C        0.23080    0.08349    0.98340    1.000
    H152     H        0.24780    0.07520    0.96470    1.000
    C411     C        0.25520    0.10724    0.02750    1.000
    C412     C        0.23010    0.11858    0.05590    1.000
    C413     C        0.18160    0.10602    0.03930    1.000
    C414     C        0.15680    0.08297    0.99400    1.000
    H153     H        0.12350    0.07510    0.98230    1.000
    C415     C        0.15730    0.04491    0.91887    1.000
    C416     C        0.04760    0.07078    0.71554    1.000
    C417     C        0.99980    0.08279    0.69900    1.000
    H154     H        0.98320    0.07550    0.71890    1.000
    C418     C        0.97510    0.10596    0.65270    1.000
    C419     C        0.99777    0.11719    0.62236    1.000
    C420     C        0.04690    0.10502    0.64060    1.000
    H155     H        0.06400    0.11290    0.62150    1.000
    C421     C        0.07140    0.08189    0.68550    1.000
    H156     H        0.10420    0.07360    0.69580    1.000
    C422     C        0.07360    0.04464    0.76320    1.000
    C423     C        0.93018    0.18491    0.47586    1.000
    C424     C        0.92043    0.15077    0.46674    1.000
    H157     H        0.89970    0.14240    0.42830    1.000
    C425     C        0.94131    0.12831    0.51454    1.000
    C426     C        0.97252    0.14044    0.57138    1.000
    C427     C        0.98176    0.17484    0.57937    1.000
    H158     H        0.00250    0.18340    0.61770    1.000
    C428     C        0.96133    0.19709    0.53259    1.000
    H159     H        0.96850    0.22040    0.53910    1.000
    C429     C        0.90865    0.20825    0.42416    1.000
    C430     C        0.23441    0.25621    0.33180    1.000
    C431     C        0.19560    0.27767    0.29760    1.000
    H160     H        0.19960    0.29280    0.27270    1.000
    C432     C        0.15050    0.27796    0.29830    1.000
    C433     C        0.14150    0.25549    0.33060    1.000
    C434     C        0.17980    0.23150    0.36190    1.000
    C435     C        0.22600    0.23301    0.36400    1.000
    H161     H        0.25240    0.21770    0.38810    1.000
    C436     C        0.28466    0.25639    0.33230    1.000
    C437     C        0.00204    0.25104    0.33470    1.000
    C438     C        0.04030    0.27218    0.37090    1.000
    H162     H        0.03580    0.28640    0.39640    1.000
    C439     C        0.08670    0.27330    0.37090    1.000
    C440     C        0.09260    0.25415    0.33130    1.000
    C441     C        0.05280    0.23250    0.29460    1.000
    C442     C        0.00790    0.23114    0.29750    1.000
    H163     H        0.98140    0.21600    0.27300    1.000
    C443     C        0.95243    0.24920    0.33600    1.000
    N17      N        0.40383    0.18392    0.42988    1.000
    C444     C        0.39730    0.15320    0.41540    1.000
    C445     C        0.40490    0.12310    0.44290    1.000
    C446     C        0.40810    0.12720    0.49670    1.000
    C447     C        0.40050    0.16030    0.51140    1.000
    C448     C        0.39670    0.18850    0.47660    1.000
    C449     C        0.43260    0.13000    0.50240    1.000
    C450     C        0.46260    0.15990    0.52250    1.000
    C451     C        0.44800    0.18750    0.48380    1.000
    N18      N        0.33382    0.32225    0.24271    1.000
    C452     C        0.31840    0.35140    0.25560    1.000
    H164     H        0.31570    0.35320    0.28930    1.000
    C453     C        0.30650    0.37900    0.21720    1.000
    H165     H        0.29870    0.39990    0.22780    1.000
    C454     C        0.30580    0.37720    0.16700    1.000
    H166     H        0.28780    0.39240    0.13560    1.000
    C455     C        0.33250    0.35240    0.16660    1.000
    H167     H        0.34750    0.35360    0.14310    1.000
    C456     C        0.33990    0.32410    0.19960    1.000
    H168     H        0.35030    0.30420    0.18900    1.000
    C457     C        0.24490    0.02800    0.81430    1.000
    H169     H        0.23260    0.04900    0.81910    1.000
    C458     C        0.28360    0.03060    0.79970    1.000
    H170     H        0.29540    0.05120    0.79310    1.000
    Cu21     Cu       0.57486    0.50000    0.84772    1.000
    Cu22     Cu       0.65661    0.50000    0.83474    1.000
    N19      N        0.72200    0.50000    0.82280    1.000
    C459     C        0.80150    0.50000    0.79610    1.000
    H171     H        0.82990    0.50000    0.79060    1.000
    Cu23     Cu       0.07486    0.00000    0.84772    1.000
    Cu24     Cu       0.15661    0.00000    0.83474    1.000
    N20      N        0.22200    0.00000    0.82280    1.000
    C460     C        0.30150    0.00000    0.79610    1.000
    H172     H        0.32990    0.00000    0.79060    1.000
