# CIF file generated by openbabel 3.1.0, see https://openbabel.org
data_I
_chemical_name_common 'HIHGUC_clean'
_cell_length_a 16.2845
_cell_length_b 16.2845
_cell_length_c 27.639
_cell_angle_alpha 85.5636
_cell_angle_beta 85.5636
_cell_angle_gamma 71.7533
_space_group_name_H-M_alt 'P 1'
_space_group_name_Hall 'P 1'
loop_
    _symmetry_equiv_pos_as_xyz
    x,y,z
loop_
    _atom_site_label
    _atom_site_type_symbol
    _atom_site_fract_x
    _atom_site_fract_y
    _atom_site_fract_z
    _atom_site_occupancy
    Cd1      Cd       0.33785    0.91127    0.18904    1.000
    Cd2      Cd       0.08873    0.66215    0.31096    1.000
    Cd3      Cd       0.66215    0.08873    0.81096    1.000
    Cd4      Cd       0.91127    0.33785    0.68904    1.000
    H1       H        0.28790    0.70270    0.07890    1.000
    H2       H        0.28500    0.64700    0.00520    1.000
    H3       H        0.40740    0.81260    0.94270    1.000
    H4       H        0.40490    0.86710    0.01800    1.000
    H5       H        0.24880    0.65000    0.92860    1.000
    H6       H        0.34130    0.58170    0.92190    1.000
    H7       H        0.37230    0.63430    0.79430    1.000
    H8       H        0.40090    0.68030    0.83510    1.000
    H9       H        0.51720    0.63120    0.77590    1.000
    H10      H        0.64580    0.57080    0.73480    1.000
    H11      H        0.68260    0.35120    0.81810    1.000
    H12      H        0.55000    0.41020    0.85740    1.000
    H13      H        0.25370    0.77610    0.84820    1.000
    H14      H        0.22550    0.73270    0.80610    1.000
    H15      H        0.12460    0.87300    0.80340    1.000
    H16      H        0.98850    0.97110    0.78810    1.000
    H17      H        0.87100    0.84680    0.88260    1.000
    H18      H        0.00820    0.74720    0.90010    1.000
    H19      H        0.30210    0.51290    0.85430    1.000
    H20      H        0.20710    0.57210    0.86740    1.000
    H21      H        0.17200    0.61020    0.71770    1.000
    H22      H        0.08590    0.54190    0.68390    1.000
    H23      H        0.10010    0.38350    0.80670    1.000
    H24      H        0.19270    0.45330    0.83760    1.000
    H25      H        0.80850    0.49890    0.72420    1.000
    H26      H        0.74830    0.93370    0.83560    1.000
    H27      H        0.29730    0.71210    0.42110    1.000
    H28      H        0.35300    0.71500    0.49480    1.000
    H29      H        0.18740    0.59260    0.55730    1.000
    H30      H        0.13290    0.59510    0.48200    1.000
    H31      H        0.35000    0.75120    0.57140    1.000
    H32      H        0.41830    0.65870    0.57810    1.000
    H33      H        0.36570    0.62770    0.70570    1.000
    H34      H        0.31970    0.59910    0.66490    1.000
    H35      H        0.36880    0.48280    0.72410    1.000
    H36      H        0.42920    0.35420    0.76520    1.000
    H37      H        0.64880    0.31740    0.68190    1.000
    H38      H        0.58980    0.45000    0.64260    1.000
    H39      H        0.22390    0.74630    0.65180    1.000
    H40      H        0.26730    0.77450    0.69390    1.000
    H41      H        0.12700    0.87540    0.69660    1.000
    H42      H        0.02890    0.01150    0.71190    1.000
    H43      H        0.15320    0.12900    0.61740    1.000
    H44      H        0.25280    0.99180    0.59990    1.000
    H45      H        0.48710    0.69790    0.64570    1.000
    H46      H        0.42790    0.79290    0.63260    1.000
    H47      H        0.38980    0.82800    0.78230    1.000
    H48      H        0.45810    0.91410    0.81610    1.000
    H49      H        0.61650    0.89990    0.69330    1.000
    H50      H        0.54670    0.80730    0.66240    1.000
    H51      H        0.50110    0.19150    0.77580    1.000
    H52      H        0.06630    0.25170    0.66440    1.000
    H53      H        0.71210    0.29730    0.92110    1.000
    H54      H        0.71500    0.35300    0.99480    1.000
    H55      H        0.59260    0.18740    0.05730    1.000
    H56      H        0.59510    0.13290    0.98200    1.000
    H57      H        0.75120    0.35000    0.07140    1.000
    H58      H        0.65870    0.41830    0.07810    1.000
    H59      H        0.62770    0.36570    0.20570    1.000
    H60      H        0.59910    0.31970    0.16490    1.000
    H61      H        0.48280    0.36880    0.22410    1.000
    H62      H        0.35420    0.42920    0.26520    1.000
    H63      H        0.31740    0.64880    0.18190    1.000
    H64      H        0.45000    0.58980    0.14260    1.000
    H65      H        0.74630    0.22390    0.15180    1.000
    H66      H        0.77450    0.26730    0.19390    1.000
    H67      H        0.87540    0.12700    0.19660    1.000
    H68      H        0.01150    0.02890    0.21190    1.000
    H69      H        0.12900    0.15320    0.11740    1.000
    H70      H        0.99180    0.25280    0.09990    1.000
    H71      H        0.69790    0.48710    0.14570    1.000
    H72      H        0.79290    0.42790    0.13260    1.000
    H73      H        0.82800    0.38980    0.28230    1.000
    H74      H        0.91410    0.45810    0.31610    1.000
    H75      H        0.89990    0.61650    0.19330    1.000
    H76      H        0.80730    0.54670    0.16240    1.000
    H77      H        0.19150    0.50110    0.27580    1.000
    H78      H        0.25170    0.06630    0.16440    1.000
    H79      H        0.70270    0.28790    0.57890    1.000
    H80      H        0.64700    0.28500    0.50520    1.000
    H81      H        0.81260    0.40740    0.44270    1.000
    H82      H        0.86710    0.40490    0.51800    1.000
    H83      H        0.65000    0.24880    0.42860    1.000
    H84      H        0.58170    0.34130    0.42190    1.000
    H85      H        0.63430    0.37230    0.29430    1.000
    H86      H        0.68030    0.40090    0.33510    1.000
    H87      H        0.63120    0.51720    0.27590    1.000
    H88      H        0.57080    0.64580    0.23480    1.000
    H89      H        0.35120    0.68260    0.31810    1.000
    H90      H        0.41020    0.55000    0.35740    1.000
    H91      H        0.77610    0.25370    0.34820    1.000
    H92      H        0.73270    0.22550    0.30610    1.000
    H93      H        0.87300    0.12460    0.30340    1.000
    H94      H        0.97110    0.98850    0.28810    1.000
    H95      H        0.84680    0.87100    0.38260    1.000
    H96      H        0.74720    0.00820    0.40010    1.000
    H97      H        0.51290    0.30210    0.35430    1.000
    H98      H        0.57210    0.20710    0.36740    1.000
    H99      H        0.61020    0.17200    0.21770    1.000
    H100     H        0.54190    0.08590    0.18390    1.000
    H101     H        0.38350    0.10010    0.30670    1.000
    H102     H        0.45330    0.19270    0.33760    1.000
    H103     H        0.49890    0.80850    0.22420    1.000
    H104     H        0.93370    0.74830    0.33560    1.000
    C1       C        0.34250    0.82690    0.10380    1.000
    C2       C        0.34390    0.79070    0.05650    1.000
    C3       C        0.31070    0.72590    0.05120    1.000
    C4       C        0.30860    0.69160    0.00710    1.000
    C5       C        0.34310    0.72630    0.96600    1.000
    C6       C        0.38160    0.79120    0.97000    1.000
    C7       C        0.38050    0.82310    0.01520    1.000
    C8       C        0.30476    0.63836    0.91095    1.000
    C9       C        0.29440    0.64200    0.85703    1.000
    C10      C        0.37960    0.63300    0.82889    1.000
    C11      C        0.51910    0.52430    0.82000    1.000
    C12      C        0.54990    0.57430    0.78360    1.000
    C13      C        0.62700    0.53900    0.76010    1.000
    C14      C        0.67960    0.45500    0.77310    1.000
    C15      C        0.64920    0.40740    0.80940    1.000
    C16      C        0.56970    0.44250    0.83260    1.000
    C17      C        0.76400    0.41520    0.74420    1.000
    C18      C        0.23190    0.72970    0.84080    1.000
    C19      C        0.07890    0.80150    0.85300    1.000
    C20      C        0.07490    0.86650    0.81990    1.000
    C21      C        0.99220    0.92500    0.81080    1.000
    C22      C        0.91830    0.91730    0.83340    1.000
    C23      C        0.92140    0.85280    0.86650    1.000
    C24      C        0.00460    0.79260    0.87700    1.000
    C25      C        0.83590    0.98210    0.81950    1.000
    C26      C        0.25960    0.56860    0.84735    1.000
    C27      C        0.18930    0.53410    0.78120    1.000
    C28      C        0.15800    0.56420    0.73450    1.000
    C29      C        0.10680    0.52400    0.71460    1.000
    C30      C        0.08660    0.45660    0.74120    1.000
    C31      C        0.11570    0.42750    0.78870    1.000
    C32      C        0.17050    0.47050    0.80720    1.000
    C33      C        0.02390    0.41250    0.72210    1.000
    C34      C        0.17310    0.65750    0.39620    1.000
    C35      C        0.20930    0.65610    0.44350    1.000
    C36      C        0.27410    0.68930    0.44880    1.000
    C37      C        0.30840    0.69140    0.49290    1.000
    C38      C        0.27370    0.65690    0.53400    1.000
    C39      C        0.20880    0.61840    0.53000    1.000
    C40      C        0.17690    0.61950    0.48480    1.000
    C41      C        0.36164    0.69524    0.58905    1.000
    C42      C        0.35800    0.70560    0.64297    1.000
    C43      C        0.36700    0.62040    0.67111    1.000
    C44      C        0.47570    0.48090    0.68000    1.000
    C45      C        0.42570    0.45010    0.71640    1.000
    C46      C        0.46100    0.37300    0.73990    1.000
    C47      C        0.54500    0.32040    0.72690    1.000
    C48      C        0.59260    0.35080    0.69060    1.000
    C49      C        0.55750    0.43030    0.66740    1.000
    C50      C        0.58480    0.23600    0.75580    1.000
    C51      C        0.27030    0.76810    0.65920    1.000
    C52      C        0.19850    0.92110    0.64700    1.000
    C53      C        0.13350    0.92510    0.68010    1.000
    C54      C        0.07500    0.00780    0.68920    1.000
    C55      C        0.08270    0.08170    0.66660    1.000
    C56      C        0.14720    0.07860    0.63350    1.000
    C57      C        0.20740    0.99540    0.62300    1.000
    C58      C        0.01790    0.16410    0.68050    1.000
    C59      C        0.43140    0.74040    0.65265    1.000
    C60      C        0.46590    0.81070    0.71880    1.000
    C61      C        0.43580    0.84200    0.76550    1.000
    C62      C        0.47600    0.89320    0.78540    1.000
    C63      C        0.54340    0.91340    0.75880    1.000
    C64      C        0.57250    0.88430    0.71130    1.000
    C65      C        0.52950    0.82950    0.69280    1.000
    C66      C        0.58750    0.97610    0.77790    1.000
    C67      C        0.65750    0.17310    0.89620    1.000
    C68      C        0.65610    0.20930    0.94350    1.000
    C69      C        0.68930    0.27410    0.94880    1.000
    C70      C        0.69140    0.30840    0.99290    1.000
    C71      C        0.65690    0.27370    0.03400    1.000
    C72      C        0.61840    0.20880    0.03000    1.000
    C73      C        0.61950    0.17690    0.98480    1.000
    C74      C        0.69524    0.36164    0.08905    1.000
    C75      C        0.70560    0.35800    0.14297    1.000
    C76      C        0.62040    0.36700    0.17111    1.000
    C77      C        0.48090    0.47570    0.18000    1.000
    C78      C        0.45010    0.42570    0.21640    1.000
    C79      C        0.37300    0.46100    0.23990    1.000
    C80      C        0.32040    0.54500    0.22690    1.000
    C81      C        0.35080    0.59260    0.19060    1.000
    C82      C        0.43030    0.55750    0.16740    1.000
    C83      C        0.23600    0.58480    0.25580    1.000
    C84      C        0.76810    0.27030    0.15920    1.000
    C85      C        0.92110    0.19850    0.14700    1.000
    C86      C        0.92510    0.13350    0.18010    1.000
    C87      C        0.00780    0.07500    0.18920    1.000
    C88      C        0.08170    0.08270    0.16660    1.000
    C89      C        0.07860    0.14720    0.13350    1.000
    C90      C        0.99540    0.20740    0.12300    1.000
    C91      C        0.16410    0.01790    0.18050    1.000
    C92      C        0.74040    0.43140    0.15265    1.000
    C93      C        0.81070    0.46590    0.21880    1.000
    C94      C        0.84200    0.43580    0.26550    1.000
    C95      C        0.89320    0.47600    0.28540    1.000
    C96      C        0.91340    0.54340    0.25880    1.000
    C97      C        0.88430    0.57250    0.21130    1.000
    C98      C        0.82950    0.52950    0.19280    1.000
    C99      C        0.97610    0.58750    0.27790    1.000
    C100     C        0.82690    0.34250    0.60380    1.000
    C101     C        0.79070    0.34390    0.55650    1.000
    C102     C        0.72590    0.31070    0.55120    1.000
    C103     C        0.69160    0.30860    0.50710    1.000
    C104     C        0.72630    0.34310    0.46600    1.000
    C105     C        0.79120    0.38160    0.47000    1.000
    C106     C        0.82310    0.38050    0.51520    1.000
    C107     C        0.63836    0.30476    0.41095    1.000
    C108     C        0.64200    0.29440    0.35703    1.000
    C109     C        0.63300    0.37960    0.32889    1.000
    C110     C        0.52430    0.51910    0.32000    1.000
    C111     C        0.57430    0.54990    0.28360    1.000
    C112     C        0.53900    0.62700    0.26010    1.000
    C113     C        0.45500    0.67960    0.27310    1.000
    C114     C        0.40740    0.64920    0.30940    1.000
    C115     C        0.44250    0.56970    0.33260    1.000
    C116     C        0.41520    0.76400    0.24420    1.000
    C117     C        0.72970    0.23190    0.34080    1.000
    C118     C        0.80150    0.07890    0.35300    1.000
    C119     C        0.86650    0.07490    0.31990    1.000
    C120     C        0.92500    0.99220    0.31080    1.000
    C121     C        0.91730    0.91830    0.33340    1.000
    C122     C        0.85280    0.92140    0.36650    1.000
    C123     C        0.79260    0.00460    0.37700    1.000
    C124     C        0.98210    0.83590    0.31950    1.000
    C125     C        0.56860    0.25960    0.34735    1.000
    C126     C        0.53410    0.18930    0.28120    1.000
    C127     C        0.56420    0.15800    0.23450    1.000
    C128     C        0.52400    0.10680    0.21460    1.000
    C129     C        0.45660    0.08660    0.24120    1.000
    C130     C        0.42750    0.11570    0.28870    1.000
    C131     C        0.47050    0.17050    0.30720    1.000
    C132     C        0.41250    0.02390    0.22210    1.000
    O1       O        0.38536    0.87856    0.10781    1.000
    O2       O        0.29614    0.80774    0.13869    1.000
    O3       O        0.34367    0.70327    0.91899    1.000
    O4       O        0.43901    0.55261    0.84434    1.000
    O5       O        0.80512    0.33792    0.75357    1.000
    O6       O        0.78864    0.46112    0.71038    1.000
    O7       O        0.15200    0.73740    0.86633    1.000
    O8       O        0.76901    0.97221    0.84610    1.000
    O9       O        0.82668    0.03828    0.78954    1.000
    O10      O        0.24150    0.58010    0.79566    1.000
    O11      O        0.00200    0.35860    0.74900    1.000
    O12      O        0.99891    0.43591    0.68040    1.000
    O13      O        0.12144    0.61464    0.39219    1.000
    O14      O        0.19226    0.70386    0.36131    1.000
    O15      O        0.29673    0.65633    0.58101    1.000
    O16      O        0.44739    0.56099    0.65566    1.000
    O17      O        0.66208    0.19488    0.74643    1.000
    O18      O        0.53888    0.21136    0.78962    1.000
    O19      O        0.26260    0.84800    0.63367    1.000
    O20      O        0.02779    0.23099    0.65390    1.000
    O21      O        0.96172    0.17332    0.71046    1.000
    O22      O        0.41990    0.75850    0.70434    1.000
    O23      O        0.64140    0.99800    0.75100    1.000
    O24      O        0.56409    0.00109    0.81960    1.000
    O25      O        0.61464    0.12144    0.89219    1.000
    O26      O        0.70386    0.19226    0.86131    1.000
    O27      O        0.65633    0.29673    0.08101    1.000
    O28      O        0.56099    0.44739    0.15566    1.000
    O29      O        0.19488    0.66208    0.24643    1.000
    O30      O        0.21136    0.53888    0.28962    1.000
    O31      O        0.84800    0.26260    0.13367    1.000
    O32      O        0.23099    0.02779    0.15390    1.000
    O33      O        0.17332    0.96172    0.21046    1.000
    O34      O        0.75850    0.41990    0.20434    1.000
    O35      O        0.99800    0.64140    0.25100    1.000
    O36      O        0.00109    0.56409    0.31960    1.000
    O37      O        0.87856    0.38536    0.60781    1.000
    O38      O        0.80774    0.29614    0.63869    1.000
    O39      O        0.70327    0.34367    0.41899    1.000
    O40      O        0.55261    0.43901    0.34434    1.000
    O41      O        0.33792    0.80512    0.25357    1.000
    O42      O        0.46112    0.78864    0.21038    1.000
    O43      O        0.73740    0.15200    0.36633    1.000
    O44      O        0.97221    0.76901    0.34610    1.000
    O45      O        0.03828    0.82668    0.28954    1.000
    O46      O        0.58010    0.24150    0.29566    1.000
    O47      O        0.35860    0.00200    0.24900    1.000
    O48      O        0.43591    0.99891    0.18040    1.000
