# CIF file generated by openbabel 3.1.0, see https://openbabel.org
data_I
_chemical_name_common 'image0'
_cell_length_a 9.8523
_cell_length_b 19.5244
_cell_length_c 19.6699
_cell_angle_alpha 89.715
_cell_angle_beta 83.058
_cell_angle_gamma 87.776
_space_group_name_H-M_alt 'P 1'
_space_group_name_Hall 'P 1'
loop_
    _symmetry_equiv_pos_as_xyz
    x,y,z
loop_
    _atom_site_label
    _atom_site_type_symbol
    _atom_site_fract_x
    _atom_site_fract_y
    _atom_site_fract_z
    _atom_site_occupancy
    Cd1      Cd       0.99924    0.15416    0.07684    1.000
    Cd2      Cd       0.06366    0.57392    0.34431    1.000
    C1       C        0.98390    0.22230    0.19600    1.000
    C2       C        0.98570    0.25870    0.26380    1.000
    C3       C        0.00550    0.32930    0.26630    1.000
    H1       H        0.01590    0.35530    0.22630    1.000
    C4       C        0.00940    0.35990    0.32990    1.000
    C5       C        0.99710    0.32010    0.39020    1.000
    H2       H        0.00010    0.34110    0.43240    1.000
    C6       C        0.98070    0.25080    0.38740    1.000
    C7       C        0.97070    0.22040    0.32370    1.000
    H3       H        0.95380    0.17400    0.32160    1.000
    C8       C        0.03340    0.43440    0.33260    1.000
    C9       C        0.97440    0.20760    0.45240    1.000
    C10      C        0.98400    0.13210    0.44260    1.000
    H4       H        0.06640    0.11970    0.41340    1.000
    H5       H        0.90630    0.11790    0.42180    1.000
    H6       H        0.98510    0.10990    0.48620    1.000
    C11      C        0.09200    0.22210    0.49160    1.000
    H7       H        0.09180    0.27030    0.50120    1.000
    H8       H        0.17660    0.20840    0.46480    1.000
    H9       H        0.08290    0.19700    0.53390    1.000
    C12      C        0.84600    0.22740    0.49700    1.000
    H10      H        0.84070    0.27630    0.50300    1.000
    H11      H        0.84670    0.20550    0.54080    1.000
    H12      H        0.76890    0.21330    0.47600    1.000
    C13      C        0.75240    0.08470    0.08370    1.000
    C14      C        0.62610    0.04480    0.08940    1.000
    C15      C        0.50000    0.07330    0.07890    1.000
    H13      H        0.49210    0.11950    0.06760    1.000
    C16      C        0.38720    0.03480    0.08490    1.000
    C17      C        0.40130    0.96590    0.10350    1.000
    H14      H        0.32410    0.93950    0.10620    1.000
    C18      C        0.52070    0.93490    0.11790    1.000
    C19      C        0.63750    0.97490    0.10820    1.000
    H15      H        0.72270    0.95520    0.11410    1.000
    C20      C        0.24880    0.06280    0.07360    1.000
    C21      C        0.40700    0.83210    0.17030    1.000
    H16      H        0.33530    0.84400    0.14280    1.000
    H17      H        0.38390    0.85110    0.21540    1.000
    H18      H        0.41700    0.78320    0.17340    1.000
    C22      C        0.55800    0.81910    0.07190    1.000
    H19      H        0.64160    0.83270    0.04600    1.000
    H20      H        0.48310    0.82830    0.04580    1.000
    H21      H        0.56450    0.77100    0.08180    1.000
    C23      C        0.66800    0.83330    0.15830    1.000
    H22      H        0.74110    0.85080    0.12680    1.000
    H23      H        0.67250    0.78410    0.15650    1.000
    H24      H        0.67830    0.84800    0.20380    1.000
    C24      C        0.79480    0.58270    0.41200    1.000
    C25      C        0.65710    0.58910    0.45340    1.000
    C26      C        0.54050    0.57770    0.42400    1.000
    H25      H        0.54700    0.56580    0.37800    1.000
    C27      C        0.41210    0.58380    0.46280    1.000
    C28      C        0.40480    0.60400    0.53240    1.000
    H26      H        0.31970    0.60740    0.55860    1.000
    C29      C        0.51860    0.61850    0.56210    1.000
    C30      C        0.65110    0.60800    0.52140    1.000
    H27      H        0.73120    0.61410    0.54090    1.000
    C31      C        0.28020    0.57120    0.43550    1.000
    C32      C        0.50200    0.64140    0.63790    1.000
    C33      C        0.63300    0.64460    0.66840    1.000
    H28      H        0.69320    0.60710    0.65150    1.000
    H29      H        0.61450    0.64160    0.71740    1.000
    H30      H        0.67490    0.68710    0.65600    1.000
    C34      C        0.42200    0.58640    0.67730    1.000
    H31      H        0.34150    0.57810    0.65630    1.000
    H32      H        0.39680    0.60120    0.72370    1.000
    H33      H        0.47810    0.54490    0.67700    1.000
    C35      C        0.40000    0.69940    0.65130    1.000
    H34      H        0.31460    0.68690    0.63740    1.000
    H35      H        0.43250    0.73890    0.62580    1.000
    H36      H        0.38820    0.71000    0.69930    1.000
    C36      C        0.06680    0.69340    0.27400    1.000
    C37      C        0.04860    0.75950    0.23810    1.000
    C38      C        0.03410    0.81960    0.27570    1.000
    H37      H        0.03080    0.81650    0.32300    1.000
    C39      C        0.02420    0.88510    0.24640    1.000
    C40      C        0.04250    0.76420    0.16800    1.000
    H38      H        0.05080    0.72480    0.14110    1.000
    C41      C        0.02410    0.82700    0.13880    1.000
    C42      C        0.01610    0.88590    0.17500    1.000
    H39      H        0.00520    0.92750    0.15270    1.000
    C43      C        0.00760    0.83230    0.06250    1.000
    C44      C        0.01110    0.95010    0.28840    1.000
    C45      C        0.11900    0.00020    0.25930    1.000
    H40      H        0.11600    0.00500    0.21090    1.000
    H41      H        0.20770    0.98290    0.26760    1.000
    H42      H        0.09980    0.04400    0.28100    1.000
    C46      C        0.88900    0.99350    0.27790    1.000
    H43      H        0.88490    0.99950    0.22970    1.000
    H44      H        0.89490    0.03740    0.29890    1.000
    H45      H        0.80830    0.97180    0.29820    1.000
    C47      C        0.01200    0.94430    0.36010    1.000
    H46      H        0.09190    0.91820    0.36950    1.000
    H47      H        0.93150    0.92160    0.37960    1.000
    H48      H        0.01210    0.98920    0.37970    1.000
    O1       O        0.97210    0.16020    0.19650    1.000
    O2       O        0.99700    0.25640    0.14110    1.000
    O3       O        0.04800    0.45840    0.39230    1.000
    O4       O        0.04550    0.47130    0.28120    1.000
    O5       O        0.73910    0.14940    0.07470    1.000
    O6       O        0.86910    0.05440    0.08850    1.000
    O7       O        0.16160    0.01940    0.06490    1.000
    O8       O        0.22470    0.12720    0.07280    1.000
    O9       O        0.79850    0.57730    0.34980    1.000
    O10      O        0.90070    0.58640    0.44360    1.000
    O11      O        0.17980    0.56550    0.47850    1.000
    O12      O        0.27610    0.56960    0.37040    1.000
    O13      O        0.05990    0.63700    0.24090    1.000
    O14      O        0.07390    0.69350    0.33680    1.000
    O15      O        0.02170    0.77900    0.02570    1.000
    O16      O        0.98260    0.89070    0.03770    1.000
    C48      C        0.53420    0.85960    0.13910    1.000
    Cd3      Cd       0.00076    0.84584    0.92316    1.000
    Cd4      Cd       0.93634    0.42608    0.65569    1.000
    C49      C        0.01610    0.77770    0.80400    1.000
    C50      C        0.01430    0.74130    0.73620    1.000
    C51      C        0.99450    0.67070    0.73370    1.000
    H49      H        0.98410    0.64470    0.77370    1.000
    C52      C        0.99060    0.64010    0.67010    1.000
    C53      C        0.00290    0.67990    0.60980    1.000
    H50      H        0.99990    0.65890    0.56760    1.000
    C54      C        0.01930    0.74920    0.61260    1.000
    C55      C        0.02930    0.77960    0.67630    1.000
    H51      H        0.04620    0.82600    0.67840    1.000
    C56      C        0.96660    0.56560    0.66740    1.000
    C57      C        0.02560    0.79240    0.54760    1.000
    C58      C        0.01600    0.86790    0.55740    1.000
    H52      H        0.93360    0.88030    0.58660    1.000
    H53      H        0.09370    0.88210    0.57820    1.000
    H54      H        0.01490    0.89010    0.51380    1.000
    C59      C        0.90800    0.77790    0.50840    1.000
    H55      H        0.90820    0.72970    0.49880    1.000
    H56      H        0.82340    0.79160    0.53520    1.000
    H57      H        0.91710    0.80300    0.46610    1.000
    C60      C        0.15400    0.77260    0.50300    1.000
    H58      H        0.15930    0.72370    0.49700    1.000
    H59      H        0.15330    0.79450    0.45920    1.000
    H60      H        0.23110    0.78670    0.52400    1.000
    C61      C        0.24760    0.91530    0.91630    1.000
    C62      C        0.37390    0.95520    0.91060    1.000
    C63      C        0.50000    0.92670    0.92110    1.000
    H61      H        0.50790    0.88050    0.93240    1.000
    C64      C        0.61280    0.96520    0.91510    1.000
    C65      C        0.59870    0.03410    0.89650    1.000
    H62      H        0.67590    0.06050    0.89380    1.000
    C66      C        0.47930    0.06510    0.88210    1.000
    C67      C        0.36250    0.02510    0.89180    1.000
    H63      H        0.27730    0.04480    0.88590    1.000
    C68      C        0.75120    0.93720    0.92640    1.000
    C69      C        0.59300    0.16790    0.82970    1.000
    H64      H        0.66470    0.15600    0.85720    1.000
    H65      H        0.61610    0.14890    0.78460    1.000
    H66      H        0.58300    0.21680    0.82660    1.000
    C70      C        0.44200    0.18090    0.92810    1.000
    H67      H        0.35840    0.16730    0.95400    1.000
    H68      H        0.51690    0.17170    0.95420    1.000
    H69      H        0.43550    0.22900    0.91820    1.000
    C71      C        0.33200    0.16670    0.84170    1.000
    H70      H        0.25890    0.14920    0.87320    1.000
    H71      H        0.32750    0.21590    0.84350    1.000
    H72      H        0.32170    0.15200    0.79620    1.000
    C72      C        0.20520    0.41730    0.58800    1.000
    C73      C        0.34290    0.41090    0.54660    1.000
    C74      C        0.45950    0.42230    0.57600    1.000
    H73      H        0.45300    0.43420    0.62200    1.000
    C75      C        0.58790    0.41620    0.53720    1.000
    C76      C        0.59520    0.39600    0.46760    1.000
    H74      H        0.68030    0.39260    0.44140    1.000
    C77      C        0.48140    0.38150    0.43790    1.000
    C78      C        0.34890    0.39200    0.47860    1.000
    H75      H        0.26880    0.38590    0.45910    1.000
    C79      C        0.71980    0.42880    0.56450    1.000
    C80      C        0.49800    0.35860    0.36210    1.000
    C81      C        0.36700    0.35540    0.33160    1.000
    H76      H        0.30680    0.39290    0.34850    1.000
    H77      H        0.38550    0.35840    0.28260    1.000
    H78      H        0.32510    0.31290    0.34400    1.000
    C82      C        0.57800    0.41360    0.32270    1.000
    H79      H        0.65850    0.42190    0.34370    1.000
    H80      H        0.60320    0.39880    0.27630    1.000
    H81      H        0.52190    0.45510    0.32300    1.000
    C83      C        0.60000    0.30060    0.34870    1.000
    H82      H        0.68540    0.31310    0.36260    1.000
    H83      H        0.56750    0.26110    0.37420    1.000
    H84      H        0.61180    0.29000    0.30070    1.000
    C84      C        0.93320    0.30660    0.72600    1.000
    C85      C        0.95140    0.24050    0.76190    1.000
    C86      C        0.96590    0.18040    0.72430    1.000
    H85      H        0.96920    0.18350    0.67700    1.000
    C87      C        0.97580    0.11490    0.75360    1.000
    C88      C        0.95750    0.23580    0.83200    1.000
    H86      H        0.94920    0.27520    0.85890    1.000
    C89      C        0.97590    0.17300    0.86120    1.000
    C90      C        0.98390    0.11410    0.82500    1.000
    H87      H        0.99480    0.07250    0.84730    1.000
    C91      C        0.99240    0.16770    0.93750    1.000
    C92      C        0.98890    0.04990    0.71160    1.000
    C93      C        0.88100    0.99980    0.74070    1.000
    H88      H        0.88400    0.99500    0.78910    1.000
    H89      H        0.79230    0.01710    0.73240    1.000
    H90      H        0.90020    0.95600    0.71900    1.000
    C94      C        0.11100    0.00650    0.72210    1.000
    H91      H        0.11510    0.00050    0.77030    1.000
    H92      H        0.10510    0.96260    0.70110    1.000
    H93      H        0.19170    0.02820    0.70180    1.000
    C95      C        0.98800    0.05570    0.63990    1.000
    H94      H        0.90810    0.08180    0.63050    1.000
    H95      H        0.06850    0.07840    0.62040    1.000
    H96      H        0.98790    0.01080    0.62030    1.000
    O17      O        0.02790    0.83980    0.80350    1.000
    O18      O        0.00300    0.74360    0.85890    1.000
    O19      O        0.95200    0.54160    0.60770    1.000
    O20      O        0.95450    0.52870    0.71880    1.000
    O21      O        0.26090    0.85060    0.92530    1.000
    O22      O        0.13090    0.94560    0.91150    1.000
    O23      O        0.83840    0.98060    0.93510    1.000
    O24      O        0.77530    0.87280    0.92720    1.000
    O25      O        0.20150    0.42270    0.65020    1.000
    O26      O        0.09930    0.41360    0.55640    1.000
    O27      O        0.82020    0.43450    0.52150    1.000
    O28      O        0.72390    0.43040    0.62960    1.000
    O29      O        0.94010    0.36300    0.75910    1.000
    O30      O        0.92610    0.30650    0.66320    1.000
    O31      O        0.97830    0.22100    0.97430    1.000
    O32      O        0.01740    0.10930    0.96230    1.000
    C96      C        0.46580    0.14040    0.86090    1.000
    Cd5      Cd       0.00000    0.00000    0.00000    1.000
    Cd6      Cd       0.00000    0.50000    0.50000    1.000
