# CIF file generated by openbabel 3.1.0, see https://openbabel.org
data_I
_chemical_name_common 'image0'
_cell_length_a 8.649
_cell_length_b 10.323
_cell_length_c 10.738
_cell_angle_alpha 90
_cell_angle_beta 90
_cell_angle_gamma 90
_space_group_name_H-M_alt 'P 1'
_space_group_name_Hall 'P 1'
loop_
    _symmetry_equiv_pos_as_xyz
    x,y,z
loop_
    _atom_site_label
    _atom_site_type_symbol
    _atom_site_fract_x
    _atom_site_fract_y
    _atom_site_fract_z
    _atom_site_occupancy
    Nd1      Nd       0.49291    0.39826    0.61302    1.000
    P1       P        0.69350    0.58170    0.86170    1.000
    P2       P        0.34260    0.58470    0.89280    1.000
    O1       O        0.67580    0.47060    0.76950    1.000
    O2       O        0.67120    0.71530    0.80150    1.000
    O3       O        0.84190    0.56990    0.93590    1.000
    O4       O        0.21760    0.54330    0.98520    1.000
    O5       O        0.32580    0.72650    0.85750    1.000
    O6       O        0.34390    0.49420    0.78050    1.000
    O7       O        0.54330    0.69500    0.04580    1.000
    H1       H        0.63150    0.69810    0.07950    1.000
    C1       C        0.53160    0.57470    0.97060    1.000
    C2       C        0.53920    0.45700    0.05660    1.000
    H2       H        0.63870    0.45380    0.09610    1.000
    H3       H        0.52360    0.37950    0.00880    1.000
    H4       H        0.46010    0.46370    0.11900    1.000
    Nd2      Nd       0.00709    0.60174    0.11302    1.000
    P3       P        0.80650    0.41830    0.36170    1.000
    P4       P        0.15740    0.41530    0.39280    1.000
    O8       O        0.82420    0.52940    0.26950    1.000
    O9       O        0.82880    0.28470    0.30150    1.000
    O10      O        0.65810    0.43010    0.43590    1.000
    O11      O        0.28240    0.45670    0.48520    1.000
    O12      O        0.17420    0.27350    0.35750    1.000
    O13      O        0.15610    0.50580    0.28050    1.000
    O14      O        0.95670    0.30500    0.54580    1.000
    H5       H        0.86850    0.30190    0.57950    1.000
    C3       C        0.96840    0.42530    0.47060    1.000
    C4       C        0.96080    0.54300    0.55660    1.000
    H6       H        0.86130    0.54620    0.59610    1.000
    H7       H        0.97640    0.62050    0.50880    1.000
    H8       H        0.03990    0.53630    0.61900    1.000
    Nd3      Nd       0.50709    0.89826    0.88698    1.000
    P5       P        0.30650    0.08170    0.63830    1.000
    P6       P        0.65740    0.08470    0.60720    1.000
    O15      O        0.32420    0.97060    0.73050    1.000
    O16      O        0.32880    0.21530    0.69850    1.000
    O17      O        0.15810    0.06990    0.56410    1.000
    O18      O        0.78240    0.04330    0.51480    1.000
    O19      O        0.67420    0.22650    0.64250    1.000
    O20      O        0.65610    0.99420    0.71950    1.000
    O21      O        0.45670    0.19500    0.45420    1.000
    H9       H        0.36850    0.19810    0.42050    1.000
    C5       C        0.46840    0.07470    0.52940    1.000
    C6       C        0.46080    0.95700    0.44340    1.000
    H10      H        0.36130    0.95380    0.40390    1.000
    H11      H        0.47640    0.87950    0.49120    1.000
    H12      H        0.53990    0.96370    0.38100    1.000
    Nd4      Nd       0.99291    0.10174    0.38698    1.000
    P7       P        0.19350    0.91830    0.13830    1.000
    P8       P        0.84260    0.91530    0.10720    1.000
    O22      O        0.17580    0.02940    0.23050    1.000
    O23      O        0.17120    0.78470    0.19850    1.000
    O24      O        0.34190    0.93010    0.06410    1.000
    O25      O        0.71760    0.95670    0.01480    1.000
    O26      O        0.82580    0.77350    0.14250    1.000
    O27      O        0.84390    0.00580    0.21950    1.000
    O28      O        0.04330    0.80500    0.95420    1.000
    H13      H        0.13150    0.80190    0.92050    1.000
    C7       C        0.03160    0.92530    0.02940    1.000
    C8       C        0.03920    0.04300    0.94340    1.000
    H14      H        0.13870    0.04620    0.90390    1.000
    H15      H        0.02360    0.12050    0.99120    1.000
    H16      H        0.96010    0.03630    0.88100    1.000
