# CIF file generated by openbabel 3.1.0, see https://openbabel.org
data_I
_chemical_name_common 'DOGZIJ_clean'
_cell_length_a 8.473
_cell_length_b 10.154
_cell_length_c 13.397
_cell_angle_alpha 68.21
_cell_angle_beta 78.64
_cell_angle_gamma 77.46
_space_group_name_H-M_alt 'P 1'
_space_group_name_Hall 'P 1'
loop_
    _symmetry_equiv_pos_as_xyz
    x,y,z
loop_
    _atom_site_label
    _atom_site_type_symbol
    _atom_site_fract_x
    _atom_site_fract_y
    _atom_site_fract_z
    _atom_site_occupancy
    Zn1      Zn       0.94337    0.43515    0.15822    1.000
    Zn2      Zn       0.05663    0.56485    0.84178    1.000
    H1       H        0.25520    0.25230    0.08250    1.000
    H2       H        0.46150    0.22910    0.32370    1.000
    H3       H        0.19300    0.37390    0.33060    1.000
    H4       H        0.63880    0.18640    0.11450    1.000
    H5       H        0.59800    0.05000    0.21090    1.000
    H6       H        0.43310    0.91870    0.26960    1.000
    H7       H        0.34450    0.81180    0.24980    1.000
    H8       H        0.53250    0.77550    0.25620    1.000
    H9       H        0.58630    0.32140    0.97300    1.000
    H10      H        0.69230    0.28880    0.87240    1.000
    H11      H        0.50650    0.35150    0.86900    1.000
    H12      H        0.92360    0.04000    0.16330    1.000
    H13      H        0.07040    0.18590    0.84280    1.000
    H14      H        0.75230    0.53260    0.51890    1.000
    H15      H        0.46580    0.45770    0.34890    1.000
    H16      H        0.74480    0.74770    0.91750    1.000
    H17      H        0.53850    0.77090    0.67630    1.000
    H18      H        0.80700    0.62610    0.66940    1.000
    H19      H        0.36120    0.81360    0.88550    1.000
    H20      H        0.40200    0.95000    0.78910    1.000
    H21      H        0.56690    0.08130    0.73040    1.000
    H22      H        0.65550    0.18820    0.75020    1.000
    H23      H        0.46750    0.22450    0.74380    1.000
    H24      H        0.41370    0.67860    0.02700    1.000
    H25      H        0.30770    0.71120    0.12760    1.000
    H26      H        0.49350    0.64850    0.13100    1.000
    H27      H        0.07640    0.96000    0.83670    1.000
    H28      H        0.92960    0.81410    0.15720    1.000
    H29      H        0.24770    0.46740    0.48110    1.000
    H30      H        0.53420    0.54230    0.65110    1.000
    C1       C        0.27350    0.26620    0.14380    1.000
    C2       C        0.38720    0.25220    0.27480    1.000
    C3       C        0.23850    0.33210    0.27820    1.000
    C4       C        0.55660    0.12620    0.14960    1.000
    C5       C        0.52300    0.06260    0.07105    1.000
    C6       C        0.47590    0.92710    0.11222    1.000
    C7       C        0.54560    0.13730    0.95960    1.000
    C8       C        0.44350    0.85140    0.23290    1.000
    C9       C        0.58650    0.28870    0.91430    1.000
    C10      C        0.98650    0.28196    0.00754    1.000
    C11      C        0.99390    0.13484    0.00404    1.000
    C12      C        0.95370    0.02368    0.09773    1.000
    C13      C        0.04180    0.11140    0.90555    1.000
    C14      C        0.77220    0.48840    0.33344    1.000
    C15      C        0.63150    0.49350    0.42035    1.000
    C16      C        0.65090    0.51930    0.51100    1.000
    C17      C        0.48010    0.47470    0.40989    1.000
    C18      C        0.72650    0.73380    0.85620    1.000
    C19      C        0.61280    0.74780    0.72520    1.000
    C20      C        0.76150    0.66790    0.72180    1.000
    C21      C        0.44340    0.87380    0.85040    1.000
    C22      C        0.47700    0.93740    0.92895    1.000
    C23      C        0.52410    0.07290    0.88778    1.000
    C24      C        0.45440    0.86270    0.04040    1.000
    C25      C        0.55650    0.14860    0.76710    1.000
    C26      C        0.41350    0.71130    0.08570    1.000
    C27      C        0.01350    0.71804    0.99246    1.000
    C28      C        0.00610    0.86516    0.99596    1.000
    C29      C        0.04630    0.97632    0.90227    1.000
    C30      C        0.95820    0.88860    0.09445    1.000
    C31      C        0.22780    0.51160    0.66656    1.000
    C32      C        0.36850    0.50650    0.57965    1.000
    C33      C        0.34910    0.48070    0.48900    1.000
    C34      C        0.51990    0.52530    0.59011    1.000
    N1       N        0.16570    0.34247    0.19489    1.000
    N2       N        0.40830    0.21200    0.18763    1.000
    N3       N        0.83430    0.65753    0.80511    1.000
    N4       N        0.59170    0.78800    0.81237    1.000
    O1       O        0.89713    0.31229    0.08565    1.000
    O2       O        0.07341    0.36352    0.93383    1.000
    O3       O        0.75545    0.42894    0.26784    1.000
    O4       O        0.89600    0.53839    0.32694    1.000
    O5       O        0.10287    0.68771    0.91435    1.000
    O6       O        0.92659    0.63648    0.06617    1.000
    O7       O        0.24455    0.57106    0.73216    1.000
    O8       O        0.10400    0.46161    0.67306    1.000
