# CIF file generated by openbabel 3.1.0, see https://openbabel.org
data_I
_chemical_name_common 'image0'
_cell_length_a 18.58
_cell_length_b 9.962
_cell_length_c 32.732
_cell_angle_alpha 90
_cell_angle_beta 90
_cell_angle_gamma 90
_space_group_name_H-M_alt 'P 1'
_space_group_name_Hall 'P 1'
loop_
    _symmetry_equiv_pos_as_xyz
    x,y,z
loop_
    _atom_site_label
    _atom_site_type_symbol
    _atom_site_fract_x
    _atom_site_fract_y
    _atom_site_fract_z
    _atom_site_occupancy
    Zn1      Zn       0.08070    0.27461    0.05860    1.000
    Zn2      Zn       0.06430    0.02828    0.21891    1.000
    O1       O        0.15914    0.00156    0.24001    1.000
    O2       O        0.17325    0.82400    0.20044    1.000
    O3       O        0.93818    0.61195    0.02699    1.000
    O4       O        0.95547    0.79946    0.99288    1.000
    N1       N        0.14542    0.40300    0.09246    1.000
    N2       N        0.19015    0.22250    0.03979    1.000
    N3       N        0.05760    0.12564    0.09857    1.000
    N4       N        0.07054    0.14159    0.13808    1.000
    N5       N        0.05257    0.03129    0.15851    1.000
    N6       N        0.44534    0.72338    0.23467    1.000
    N7       N        0.50436    0.78284    0.24718    1.000
    N8       N        0.49020    0.90833    0.25846    1.000
    C1       C        0.20860    0.12890    0.01243    1.000
    H1       H        0.17250    0.08070    0.99930    1.000
    C2       C        0.27930    0.10150    0.00306    1.000
    H2       H        0.29070    0.03570    0.98400    1.000
    C3       C        0.33180    0.17180    0.02205    1.000
    H3       H        0.38000    0.15540    0.01600    1.000
    C4       C        0.31360    0.26670    0.05004    1.000
    H4       H        0.34930    0.31530    0.06340    1.000
    C5       C        0.24212    0.29100    0.05865    1.000
    C6       C        0.21660    0.39130    0.08866    1.000
    C7       C        0.26300    0.46840    0.11187    1.000
    H5       H        0.31260    0.45820    0.10930    1.000
    C8       C        0.23530    0.55920    0.13847    1.000
    H6       H        0.26600    0.61360    0.15360    1.000
    C9       C        0.16340    0.57080    0.14301    1.000
    H7       H        0.14390    0.63140    0.16160    1.000
    C10      C        0.11940    0.49010    0.11933    1.000
    H8       H        0.06980    0.49730    0.12240    1.000
    C11      C        0.02949    0.99990    0.09312    1.000
    C12      C        0.00680    0.93320    0.05807    1.000
    H9       H        0.00850    0.97430    0.03260    1.000
    C13      C        0.98187    0.80470    0.06252    1.000
    C14      C        0.95691    0.73020    0.02500    1.000
    C15      C        0.97957    0.74360    0.10121    1.000
    H10      H        0.96260    0.65610    0.10330    1.000
    C16      C        0.00147    0.80830    0.13587    1.000
    H11      H        0.99960    0.76700    0.16130    1.000
    C17      C        0.02683    0.93980    0.13121    1.000
    C18      C        0.19630    0.90870    0.22382    1.000
    C19      C        0.27520    0.91200    0.23485    1.000
    C20      C        0.30405    0.02990    0.25218    1.000
    H12      H        0.27340    0.10110    0.25800    1.000
    C21      C        0.37572    0.04250    0.26062    1.000
    H13      H        0.39500    0.12170    0.27100    1.000
    C22      C        0.41850    0.93030    0.25292    1.000
    C23      C        0.38985    0.81260    0.23717    1.000
    C24      C        0.31716    0.80390    0.22659    1.000
    H14      H        0.29830    0.72730    0.21440    1.000
    Zn3      Zn       0.41930    0.72539    0.55860    1.000
    Zn4      Zn       0.43570    0.97172    0.71891    1.000
    O5       O        0.34086    0.99844    0.74001    1.000
    O6       O        0.32675    0.17600    0.70044    1.000
    O7       O        0.56182    0.38805    0.52699    1.000
    O8       O        0.54453    0.20054    0.49288    1.000
    N9       N        0.35458    0.59700    0.59246    1.000
    N10      N        0.30985    0.77750    0.53979    1.000
    N11      N        0.44240    0.87436    0.59857    1.000
    N12      N        0.42946    0.85841    0.63808    1.000
    N13      N        0.44743    0.96871    0.65851    1.000
    N14      N        0.05466    0.27662    0.73467    1.000
    N15      N        0.99564    0.21716    0.74718    1.000
    N16      N        0.00980    0.09167    0.75846    1.000
    C25      C        0.29140    0.87110    0.51243    1.000
    H15      H        0.32750    0.91930    0.49930    1.000
    C26      C        0.22070    0.89850    0.50306    1.000
    H16      H        0.20930    0.96430    0.48400    1.000
    C27      C        0.16820    0.82820    0.52205    1.000
    H17      H        0.12000    0.84460    0.51600    1.000
    C28      C        0.18640    0.73330    0.55004    1.000
    H18      H        0.15070    0.68470    0.56340    1.000
    C29      C        0.25788    0.70900    0.55865    1.000
    C30      C        0.28340    0.60870    0.58866    1.000
    C31      C        0.23700    0.53160    0.61187    1.000
    H19      H        0.18740    0.54180    0.60930    1.000
    C32      C        0.26470    0.44080    0.63847    1.000
    H20      H        0.23400    0.38640    0.65360    1.000
    C33      C        0.33660    0.42920    0.64301    1.000
    H21      H        0.35610    0.36860    0.66160    1.000
    C34      C        0.38060    0.50990    0.61933    1.000
    H22      H        0.43020    0.50270    0.62240    1.000
    C35      C        0.47051    0.00010    0.59312    1.000
    C36      C        0.49320    0.06680    0.55807    1.000
    H23      H        0.49150    0.02570    0.53260    1.000
    C37      C        0.51813    0.19530    0.56252    1.000
    C38      C        0.54309    0.26980    0.52500    1.000
    C39      C        0.52043    0.25640    0.60121    1.000
    H24      H        0.53740    0.34390    0.60330    1.000
    C40      C        0.49853    0.19170    0.63587    1.000
    H25      H        0.50040    0.23300    0.66130    1.000
    C41      C        0.47317    0.06020    0.63121    1.000
    C42      C        0.30370    0.09130    0.72382    1.000
    C43      C        0.22480    0.08800    0.73485    1.000
    C44      C        0.19595    0.97010    0.75218    1.000
    H26      H        0.22660    0.89890    0.75800    1.000
    C45      C        0.12428    0.95750    0.76062    1.000
    H27      H        0.10500    0.87830    0.77100    1.000
    C46      C        0.08150    0.06970    0.75292    1.000
    C47      C        0.11015    0.18740    0.73717    1.000
    C48      C        0.18284    0.19610    0.72659    1.000
    H28      H        0.20170    0.27270    0.71440    1.000
    Zn5      Zn       0.91930    0.77461    0.44140    1.000
    Zn6      Zn       0.93570    0.52828    0.28109    1.000
    O9       O        0.84086    0.50156    0.25999    1.000
    O10      O        0.82675    0.32400    0.29956    1.000
    O11      O        0.06182    0.11195    0.47301    1.000
    O12      O        0.04453    0.29946    0.50712    1.000
    N17      N        0.85458    0.90300    0.40754    1.000
    N18      N        0.80985    0.72250    0.46021    1.000
    N19      N        0.94240    0.62564    0.40143    1.000
    N20      N        0.92946    0.64159    0.36192    1.000
    N21      N        0.94743    0.53129    0.34149    1.000
    N22      N        0.55466    0.22338    0.26533    1.000
    N23      N        0.49564    0.28284    0.25282    1.000
    N24      N        0.50980    0.40833    0.24154    1.000
    C49      C        0.79140    0.62890    0.48757    1.000
    H29      H        0.82750    0.58070    0.50070    1.000
    C50      C        0.72070    0.60150    0.49694    1.000
    H30      H        0.70930    0.53570    0.51600    1.000
    C51      C        0.66820    0.67180    0.47795    1.000
    H31      H        0.62000    0.65540    0.48400    1.000
    C52      C        0.68640    0.76670    0.44996    1.000
    H32      H        0.65070    0.81530    0.43660    1.000
    C53      C        0.75788    0.79100    0.44135    1.000
    C54      C        0.78340    0.89130    0.41134    1.000
    C55      C        0.73700    0.96840    0.38813    1.000
    H33      H        0.68740    0.95820    0.39070    1.000
    C56      C        0.76470    0.05920    0.36153    1.000
    H34      H        0.73400    0.11360    0.34640    1.000
    C57      C        0.83660    0.07080    0.35699    1.000
    H35      H        0.85610    0.13140    0.33840    1.000
    C58      C        0.88060    0.99010    0.38067    1.000
    H36      H        0.93020    0.99730    0.37760    1.000
    C59      C        0.97051    0.49990    0.40688    1.000
    C60      C        0.99320    0.43320    0.44193    1.000
    H37      H        0.99150    0.47430    0.46740    1.000
    C61      C        0.01813    0.30470    0.43748    1.000
    C62      C        0.04309    0.23020    0.47500    1.000
    C63      C        0.02043    0.24360    0.39879    1.000
    H38      H        0.03740    0.15610    0.39670    1.000
    C64      C        0.99853    0.30830    0.36413    1.000
    H39      H        0.00040    0.26700    0.33870    1.000
    C65      C        0.97317    0.43980    0.36879    1.000
    C66      C        0.80370    0.40870    0.27618    1.000
    C67      C        0.72480    0.41200    0.26515    1.000
    C68      C        0.69595    0.52990    0.24782    1.000
    H40      H        0.72660    0.60110    0.24200    1.000
    C69      C        0.62428    0.54250    0.23938    1.000
    H41      H        0.60500    0.62170    0.22900    1.000
    C70      C        0.58150    0.43030    0.24708    1.000
    C71      C        0.61015    0.31260    0.26283    1.000
    C72      C        0.68284    0.30390    0.27341    1.000
    H42      H        0.70170    0.22730    0.28560    1.000
    Zn7      Zn       0.58070    0.22539    0.94140    1.000
    Zn8      Zn       0.56430    0.47172    0.78109    1.000
    O13      O        0.65914    0.49844    0.75999    1.000
    O14      O        0.67325    0.67600    0.79956    1.000
    O15      O        0.43818    0.88805    0.97301    1.000
    O16      O        0.45547    0.70054    0.00712    1.000
    N25      N        0.64542    0.09700    0.90754    1.000
    N26      N        0.69015    0.27750    0.96021    1.000
    N27      N        0.55760    0.37436    0.90143    1.000
    N28      N        0.57054    0.35841    0.86192    1.000
    N29      N        0.55257    0.46871    0.84149    1.000
    N30      N        0.94534    0.77662    0.76533    1.000
    N31      N        0.00436    0.71716    0.75282    1.000
    N32      N        0.99020    0.59167    0.74154    1.000
    C73      C        0.70860    0.37110    0.98757    1.000
    H43      H        0.67250    0.41930    0.00070    1.000
    C74      C        0.77930    0.39850    0.99694    1.000
    H44      H        0.79070    0.46430    0.01600    1.000
    C75      C        0.83180    0.32820    0.97795    1.000
    H45      H        0.88000    0.34460    0.98400    1.000
    C76      C        0.81360    0.23330    0.94996    1.000
    H46      H        0.84930    0.18470    0.93660    1.000
    C77      C        0.74212    0.20900    0.94135    1.000
    C78      C        0.71660    0.10870    0.91134    1.000
    C79      C        0.76300    0.03160    0.88813    1.000
    H47      H        0.81260    0.04180    0.89070    1.000
    C80      C        0.73530    0.94080    0.86153    1.000
    H48      H        0.76600    0.88640    0.84640    1.000
    C81      C        0.66340    0.92920    0.85699    1.000
    H49      H        0.64390    0.86860    0.83840    1.000
    C82      C        0.61940    0.00990    0.88067    1.000
    H50      H        0.56980    0.00270    0.87760    1.000
    C83      C        0.52949    0.50010    0.90688    1.000
    C84      C        0.50680    0.56680    0.94193    1.000
    H51      H        0.50850    0.52570    0.96740    1.000
    C85      C        0.48187    0.69530    0.93748    1.000
    C86      C        0.45691    0.76980    0.97500    1.000
    C87      C        0.47957    0.75640    0.89879    1.000
    H52      H        0.46260    0.84390    0.89670    1.000
    C88      C        0.50147    0.69170    0.86413    1.000
    H53      H        0.49960    0.73300    0.83870    1.000
    C89      C        0.52683    0.56020    0.86879    1.000
    C90      C        0.69630    0.59130    0.77618    1.000
    C91      C        0.77520    0.58800    0.76515    1.000
    C92      C        0.80405    0.47010    0.74782    1.000
    H54      H        0.77340    0.39890    0.74200    1.000
    C93      C        0.87572    0.45750    0.73938    1.000
    H55      H        0.89500    0.37830    0.72900    1.000
    C94      C        0.91850    0.56970    0.74708    1.000
    C95      C        0.88985    0.68740    0.76283    1.000
    C96      C        0.81716    0.69610    0.77341    1.000
    H56      H        0.79830    0.77270    0.78560    1.000
    Zn9      Zn       0.91930    0.72539    0.94140    1.000
    Zn10     Zn       0.93570    0.97172    0.78109    1.000
    O17      O        0.84086    0.99844    0.75999    1.000
    O18      O        0.82675    0.17600    0.79956    1.000
    O19      O        0.06182    0.38805    0.97301    1.000
    O20      O        0.04453    0.20054    0.00712    1.000
    N33      N        0.85458    0.59700    0.90754    1.000
    N34      N        0.80985    0.77750    0.96021    1.000
    N35      N        0.94240    0.87436    0.90143    1.000
    N36      N        0.92946    0.85841    0.86192    1.000
    N37      N        0.94743    0.96871    0.84149    1.000
    N38      N        0.55466    0.27662    0.76533    1.000
    N39      N        0.49564    0.21716    0.75282    1.000
    N40      N        0.50980    0.09167    0.74154    1.000
    C97      C        0.79140    0.87110    0.98757    1.000
    H57      H        0.82750    0.91930    0.00070    1.000
    C98      C        0.72070    0.89850    0.99694    1.000
    H58      H        0.70930    0.96430    0.01600    1.000
    C99      C        0.66820    0.82820    0.97795    1.000
    H59      H        0.62000    0.84460    0.98400    1.000
    C100     C        0.68640    0.73330    0.94996    1.000
    H60      H        0.65070    0.68470    0.93660    1.000
    C101     C        0.75788    0.70900    0.94135    1.000
    C102     C        0.78340    0.60870    0.91134    1.000
    C103     C        0.73700    0.53160    0.88813    1.000
    H61      H        0.68740    0.54180    0.89070    1.000
    C104     C        0.76470    0.44080    0.86153    1.000
    H62      H        0.73400    0.38640    0.84640    1.000
    C105     C        0.83660    0.42920    0.85699    1.000
    H63      H        0.85610    0.36860    0.83840    1.000
    C106     C        0.88060    0.50990    0.88067    1.000
    H64      H        0.93020    0.50270    0.87760    1.000
    C107     C        0.97051    0.00010    0.90688    1.000
    C108     C        0.99320    0.06680    0.94193    1.000
    H65      H        0.99150    0.02570    0.96740    1.000
    C109     C        0.01813    0.19530    0.93748    1.000
    C110     C        0.04309    0.26980    0.97500    1.000
    C111     C        0.02043    0.25640    0.89879    1.000
    H66      H        0.03740    0.34390    0.89670    1.000
    C112     C        0.99853    0.19170    0.86413    1.000
    H67      H        0.00040    0.23300    0.83870    1.000
    C113     C        0.97317    0.06020    0.86879    1.000
    C114     C        0.80370    0.09130    0.77618    1.000
    C115     C        0.72480    0.08800    0.76515    1.000
    C116     C        0.69595    0.97010    0.74782    1.000
    H68      H        0.72660    0.89890    0.74200    1.000
    C117     C        0.62428    0.95750    0.73938    1.000
    H69      H        0.60500    0.87830    0.72900    1.000
    C118     C        0.58150    0.06970    0.74708    1.000
    C119     C        0.61015    0.18740    0.76283    1.000
    C120     C        0.68284    0.19610    0.77341    1.000
    H70      H        0.70170    0.27270    0.78560    1.000
    Zn11     Zn       0.58070    0.27461    0.44140    1.000
    Zn12     Zn       0.56430    0.02828    0.28109    1.000
    O21      O        0.65914    0.00156    0.25999    1.000
    O22      O        0.67325    0.82400    0.29956    1.000
    O23      O        0.43818    0.61195    0.47301    1.000
    O24      O        0.45547    0.79946    0.50712    1.000
    N41      N        0.64542    0.40300    0.40754    1.000
    N42      N        0.69015    0.22250    0.46021    1.000
    N43      N        0.55760    0.12564    0.40143    1.000
    N44      N        0.57054    0.14159    0.36192    1.000
    N45      N        0.55257    0.03129    0.34149    1.000
    N46      N        0.94534    0.72338    0.26533    1.000
    N47      N        0.00436    0.78284    0.25282    1.000
    N48      N        0.99020    0.90833    0.24154    1.000
    C121     C        0.70860    0.12890    0.48757    1.000
    H71      H        0.67250    0.08070    0.50070    1.000
    C122     C        0.77930    0.10150    0.49694    1.000
    H72      H        0.79070    0.03570    0.51600    1.000
    C123     C        0.83180    0.17180    0.47795    1.000
    H73      H        0.88000    0.15540    0.48400    1.000
    C124     C        0.81360    0.26670    0.44996    1.000
    H74      H        0.84930    0.31530    0.43660    1.000
    C125     C        0.74212    0.29100    0.44135    1.000
    C126     C        0.71660    0.39130    0.41134    1.000
    C127     C        0.76300    0.46840    0.38813    1.000
    H75      H        0.81260    0.45820    0.39070    1.000
    C128     C        0.73530    0.55920    0.36153    1.000
    H76      H        0.76600    0.61360    0.34640    1.000
    C129     C        0.66340    0.57080    0.35699    1.000
    H77      H        0.64390    0.63140    0.33840    1.000
    C130     C        0.61940    0.49010    0.38067    1.000
    H78      H        0.56980    0.49730    0.37760    1.000
    C131     C        0.52949    0.99990    0.40688    1.000
    C132     C        0.50680    0.93320    0.44193    1.000
    H79      H        0.50850    0.97430    0.46740    1.000
    C133     C        0.48187    0.80470    0.43748    1.000
    C134     C        0.45691    0.73020    0.47500    1.000
    C135     C        0.47957    0.74360    0.39879    1.000
    H80      H        0.46260    0.65610    0.39670    1.000
    C136     C        0.50147    0.80830    0.36413    1.000
    H81      H        0.49960    0.76700    0.33870    1.000
    C137     C        0.52683    0.93980    0.36879    1.000
    C138     C        0.69630    0.90870    0.27618    1.000
    C139     C        0.77520    0.91200    0.26515    1.000
    C140     C        0.80405    0.02990    0.24782    1.000
    H82      H        0.77340    0.10110    0.24200    1.000
    C141     C        0.87572    0.04250    0.23938    1.000
    H83      H        0.89500    0.12170    0.22900    1.000
    C142     C        0.91850    0.93030    0.24708    1.000
    C143     C        0.88985    0.81260    0.26283    1.000
    C144     C        0.81716    0.80390    0.27341    1.000
    H84      H        0.79830    0.72730    0.28560    1.000
    Zn13     Zn       0.08070    0.22539    0.55860    1.000
    Zn14     Zn       0.06430    0.47172    0.71891    1.000
    O25      O        0.15914    0.49844    0.74001    1.000
    O26      O        0.17325    0.67600    0.70044    1.000
    O27      O        0.93818    0.88805    0.52699    1.000
    O28      O        0.95547    0.70054    0.49288    1.000
    N49      N        0.14542    0.09700    0.59246    1.000
    N50      N        0.19015    0.27750    0.53979    1.000
    N51      N        0.05760    0.37436    0.59857    1.000
    N52      N        0.07054    0.35841    0.63808    1.000
    N53      N        0.05257    0.46871    0.65851    1.000
    N54      N        0.44534    0.77662    0.73467    1.000
    N55      N        0.50436    0.71716    0.74718    1.000
    N56      N        0.49020    0.59167    0.75846    1.000
    C145     C        0.20860    0.37110    0.51243    1.000
    H85      H        0.17250    0.41930    0.49930    1.000
    C146     C        0.27930    0.39850    0.50306    1.000
    H86      H        0.29070    0.46430    0.48400    1.000
    C147     C        0.33180    0.32820    0.52205    1.000
    H87      H        0.38000    0.34460    0.51600    1.000
    C148     C        0.31360    0.23330    0.55004    1.000
    H88      H        0.34930    0.18470    0.56340    1.000
    C149     C        0.24212    0.20900    0.55865    1.000
    C150     C        0.21660    0.10870    0.58866    1.000
    C151     C        0.26300    0.03160    0.61187    1.000
    H89      H        0.31260    0.04180    0.60930    1.000
    C152     C        0.23530    0.94080    0.63847    1.000
    H90      H        0.26600    0.88640    0.65360    1.000
    C153     C        0.16340    0.92920    0.64301    1.000
    H91      H        0.14390    0.86860    0.66160    1.000
    C154     C        0.11940    0.00990    0.61933    1.000
    H92      H        0.06980    0.00270    0.62240    1.000
    C155     C        0.02949    0.50010    0.59312    1.000
    C156     C        0.00680    0.56680    0.55807    1.000
    H93      H        0.00850    0.52570    0.53260    1.000
    C157     C        0.98187    0.69530    0.56252    1.000
    C158     C        0.95691    0.76980    0.52500    1.000
    C159     C        0.97957    0.75640    0.60121    1.000
    H94      H        0.96260    0.84390    0.60330    1.000
    C160     C        0.00147    0.69170    0.63587    1.000
    H95      H        0.99960    0.73300    0.66130    1.000
    C161     C        0.02683    0.56020    0.63121    1.000
    C162     C        0.19630    0.59130    0.72382    1.000
    C163     C        0.27520    0.58800    0.73485    1.000
    C164     C        0.30405    0.47010    0.75218    1.000
    H96      H        0.27340    0.39890    0.75800    1.000
    C165     C        0.37572    0.45750    0.76062    1.000
    H97      H        0.39500    0.37830    0.77100    1.000
    C166     C        0.41850    0.56970    0.75292    1.000
    C167     C        0.38985    0.68740    0.73717    1.000
    C168     C        0.31716    0.69610    0.72659    1.000
    H98      H        0.29830    0.77270    0.71440    1.000
    Zn15     Zn       0.41930    0.77461    0.05860    1.000
    Zn16     Zn       0.43570    0.52828    0.21891    1.000
    O29      O        0.34086    0.50156    0.24001    1.000
    O30      O        0.32675    0.32400    0.20044    1.000
    O31      O        0.56182    0.11195    0.02699    1.000
    O32      O        0.54453    0.29946    0.99288    1.000
    N57      N        0.35458    0.90300    0.09246    1.000
    N58      N        0.30985    0.72250    0.03979    1.000
    N59      N        0.44240    0.62564    0.09857    1.000
    N60      N        0.42946    0.64159    0.13808    1.000
    N61      N        0.44743    0.53129    0.15851    1.000
    N62      N        0.05466    0.22338    0.23467    1.000
    N63      N        0.99564    0.28284    0.24718    1.000
    N64      N        0.00980    0.40833    0.25846    1.000
    C169     C        0.29140    0.62890    0.01243    1.000
    H99      H        0.32750    0.58070    0.99930    1.000
    C170     C        0.22070    0.60150    0.00306    1.000
    H100     H        0.20930    0.53570    0.98400    1.000
    C171     C        0.16820    0.67180    0.02205    1.000
    H101     H        0.12000    0.65540    0.01600    1.000
    C172     C        0.18640    0.76670    0.05004    1.000
    H102     H        0.15070    0.81530    0.06340    1.000
    C173     C        0.25788    0.79100    0.05865    1.000
    C174     C        0.28340    0.89130    0.08866    1.000
    C175     C        0.23700    0.96840    0.11187    1.000
    H103     H        0.18740    0.95820    0.10930    1.000
    C176     C        0.26470    0.05920    0.13847    1.000
    H104     H        0.23400    0.11360    0.15360    1.000
    C177     C        0.33660    0.07080    0.14301    1.000
    H105     H        0.35610    0.13140    0.16160    1.000
    C178     C        0.38060    0.99010    0.11933    1.000
    H106     H        0.43020    0.99730    0.12240    1.000
    C179     C        0.47051    0.49990    0.09312    1.000
    C180     C        0.49320    0.43320    0.05807    1.000
    H107     H        0.49150    0.47430    0.03260    1.000
    C181     C        0.51813    0.30470    0.06252    1.000
    C182     C        0.54309    0.23020    0.02500    1.000
    C183     C        0.52043    0.24360    0.10121    1.000
    H108     H        0.53740    0.15610    0.10330    1.000
    C184     C        0.49853    0.30830    0.13587    1.000
    H109     H        0.50040    0.26700    0.16130    1.000
    C185     C        0.47317    0.43980    0.13121    1.000
    C186     C        0.30370    0.40870    0.22382    1.000
    C187     C        0.22480    0.41200    0.23485    1.000
    C188     C        0.19595    0.52990    0.25218    1.000
    H110     H        0.22660    0.60110    0.25800    1.000
    C189     C        0.12428    0.54250    0.26062    1.000
    H111     H        0.10500    0.62170    0.27100    1.000
    C190     C        0.08150    0.43030    0.25292    1.000
    C191     C        0.11015    0.31260    0.23717    1.000
    C192     C        0.18284    0.30390    0.22659    1.000
    H112     H        0.20170    0.22730    0.21440    1.000
