# CIF file generated by openbabel 3.1.0, see https://openbabel.org
data_I
_chemical_name_common 'image0'
_cell_length_a 7.2499
_cell_length_b 23.7625
_cell_length_c 30.735
_cell_angle_alpha 90
_cell_angle_beta 90
_cell_angle_gamma 90
_space_group_name_H-M_alt 'P 1'
_space_group_name_Hall 'P 1'
loop_
    _symmetry_equiv_pos_as_xyz
    x,y,z
loop_
    _atom_site_label
    _atom_site_type_symbol
    _atom_site_fract_x
    _atom_site_fract_y
    _atom_site_fract_z
    _atom_site_occupancy
    Ag1      Ag       0.19513    0.77005    0.29063    1.000
    Ag2      Ag       0.52526    0.44231    0.48402    1.000
    O1       O        0.34240    0.69581    0.31389    1.000
    O2       O        0.45170    0.66770    0.24974    1.000
    O3       O        0.47610    0.58800    0.44647    1.000
    O4       O        0.65470    0.51204    0.44185    1.000
    N1       N        0.10950    0.81274    0.35751    1.000
    N2       N        0.02160    0.87411    0.43150    1.000
    C1       C        0.00200    0.85815    0.35583    1.000
    H1       H        0.95480    0.86970    0.32920    1.000
    C2       C        0.95940    0.88834    0.39260    1.000
    H2       H        0.88430    0.91990    0.39000    1.000
    C3       C        0.12640    0.82831    0.43313    1.000
    H3       H        0.17120    0.81640    0.46000    1.000
    C4       C        0.17090    0.79795    0.39670    1.000
    H4       H        0.24560    0.76630    0.39940    1.000
    C5       C        0.43240    0.66341    0.29011    1.000
    C6       C        0.52650    0.61456    0.31192    1.000
    C7       C        0.63410    0.57741    0.28830    1.000
    H5       H        0.64530    0.58170    0.25830    1.000
    C8       C        0.72470    0.53393    0.30904    1.000
    H6       H        0.79680    0.50900    0.29300    1.000
    C9       C        0.70860    0.52736    0.35324    1.000
    H7       H        0.77230    0.49850    0.36710    1.000
    C10      C        0.59870    0.56320    0.37756    1.000
    C11      C        0.50910    0.60727    0.35673    1.000
    H8       H        0.43700    0.63210    0.37280    1.000
    C12      C        0.57500    0.55381    0.42545    1.000
    Ag3      Ag       0.69513    0.27005    0.79063    1.000
    Ag4      Ag       0.02526    0.94232    0.98402    1.000
    O5       O        0.84240    0.19581    0.81389    1.000
    O6       O        0.95170    0.16770    0.74974    1.000
    O7       O        0.97610    0.08800    0.94647    1.000
    O8       O        0.15470    0.01204    0.94185    1.000
    N3       N        0.60950    0.31274    0.85751    1.000
    N4       N        0.52160    0.37411    0.93150    1.000
    C13      C        0.50200    0.35815    0.85583    1.000
    H9       H        0.45480    0.36970    0.82920    1.000
    C14      C        0.45940    0.38834    0.89260    1.000
    H10      H        0.38430    0.41990    0.89000    1.000
    C15      C        0.62640    0.32831    0.93313    1.000
    H11      H        0.67120    0.31640    0.96000    1.000
    C16      C        0.67090    0.29795    0.89670    1.000
    H12      H        0.74560    0.26630    0.89940    1.000
    C17      C        0.93240    0.16341    0.79011    1.000
    C18      C        0.02650    0.11456    0.81192    1.000
    C19      C        0.13410    0.07741    0.78830    1.000
    H13      H        0.14530    0.08170    0.75830    1.000
    C20      C        0.22470    0.03393    0.80904    1.000
    H14      H        0.29680    0.00900    0.79300    1.000
    C21      C        0.20860    0.02736    0.85324    1.000
    H15      H        0.27230    0.99850    0.86710    1.000
    C22      C        0.09870    0.06320    0.87756    1.000
    C23      C        0.00910    0.10727    0.85673    1.000
    H16      H        0.93700    0.13210    0.87280    1.000
    C24      C        0.07500    0.05381    0.92545    1.000
    Ag5      Ag       0.30487    0.22995    0.79063    1.000
    Ag6      Ag       0.97474    0.55768    0.98402    1.000
    O9       O        0.15760    0.30419    0.81389    1.000
    O10      O        0.04830    0.33230    0.74974    1.000
    O11      O        0.02390    0.41200    0.94647    1.000
    O12      O        0.84530    0.48796    0.94185    1.000
    N5       N        0.39050    0.18726    0.85751    1.000
    N6       N        0.47840    0.12589    0.93150    1.000
    C25      C        0.49800    0.14185    0.85583    1.000
    H17      H        0.54520    0.13030    0.82920    1.000
    C26      C        0.54060    0.11166    0.89260    1.000
    H18      H        0.61570    0.08010    0.89000    1.000
    C27      C        0.37360    0.17169    0.93313    1.000
    H19      H        0.32880    0.18360    0.96000    1.000
    C28      C        0.32910    0.20205    0.89670    1.000
    H20      H        0.25440    0.23370    0.89940    1.000
    C29      C        0.06760    0.33659    0.79011    1.000
    C30      C        0.97350    0.38544    0.81192    1.000
    C31      C        0.86590    0.42259    0.78830    1.000
    H21      H        0.85470    0.41830    0.75830    1.000
    C32      C        0.77530    0.46607    0.80904    1.000
    H22      H        0.70320    0.49100    0.79300    1.000
    C33      C        0.79140    0.47264    0.85324    1.000
    H23      H        0.72770    0.50150    0.86710    1.000
    C34      C        0.90130    0.43680    0.87756    1.000
    C35      C        0.99090    0.39273    0.85673    1.000
    H24      H        0.06300    0.36790    0.87280    1.000
    C36      C        0.92500    0.44619    0.92545    1.000
    Ag7      Ag       0.80487    0.72995    0.29063    1.000
    Ag8      Ag       0.47474    0.05769    0.48402    1.000
    O13      O        0.65760    0.80419    0.31389    1.000
    O14      O        0.54830    0.83230    0.24974    1.000
    O15      O        0.52390    0.91200    0.44647    1.000
    O16      O        0.34530    0.98796    0.44185    1.000
    N7       N        0.89050    0.68726    0.35751    1.000
    N8       N        0.97840    0.62589    0.43150    1.000
    C37      C        0.99800    0.64185    0.35583    1.000
    H25      H        0.04520    0.63030    0.32920    1.000
    C38      C        0.04060    0.61166    0.39260    1.000
    H26      H        0.11570    0.58010    0.39000    1.000
    C39      C        0.87360    0.67169    0.43313    1.000
    H27      H        0.82880    0.68360    0.46000    1.000
    C40      C        0.82910    0.70205    0.39670    1.000
    H28      H        0.75440    0.73370    0.39940    1.000
    C41      C        0.56760    0.83659    0.29011    1.000
    C42      C        0.47350    0.88544    0.31192    1.000
    C43      C        0.36590    0.92259    0.28830    1.000
    H29      H        0.35470    0.91830    0.25830    1.000
    C44      C        0.27530    0.96607    0.30904    1.000
    H30      H        0.20320    0.99100    0.29300    1.000
    C45      C        0.29140    0.97264    0.35324    1.000
    H31      H        0.22770    0.00150    0.36710    1.000
    C46      C        0.40130    0.93680    0.37756    1.000
    C47      C        0.49090    0.89273    0.35673    1.000
    H32      H        0.56300    0.86790    0.37280    1.000
    C48      C        0.42500    0.94619    0.42545    1.000
    Ag9      Ag       0.80487    0.27005    0.20937    1.000
    Ag10     Ag       0.47474    0.94232    0.01598    1.000
    O17      O        0.65760    0.19581    0.18611    1.000
    O18      O        0.54830    0.16770    0.25026    1.000
    O19      O        0.52390    0.08800    0.05353    1.000
    O20      O        0.34530    0.01204    0.05815    1.000
    N9       N        0.89050    0.31274    0.14249    1.000
    N10      N        0.97840    0.37411    0.06850    1.000
    C49      C        0.99800    0.35815    0.14417    1.000
    H33      H        0.04520    0.36970    0.17080    1.000
    C50      C        0.04060    0.38834    0.10740    1.000
    H34      H        0.11570    0.41990    0.11000    1.000
    C51      C        0.87360    0.32831    0.06687    1.000
    H35      H        0.82880    0.31640    0.04000    1.000
    C52      C        0.82910    0.29795    0.10330    1.000
    H36      H        0.75440    0.26630    0.10060    1.000
    C53      C        0.56760    0.16341    0.20989    1.000
    C54      C        0.47350    0.11456    0.18808    1.000
    C55      C        0.36590    0.07741    0.21170    1.000
    H37      H        0.35470    0.08170    0.24170    1.000
    C56      C        0.27530    0.03393    0.19096    1.000
    H38      H        0.20320    0.00900    0.20700    1.000
    C57      C        0.29140    0.02736    0.14676    1.000
    H39      H        0.22770    0.99850    0.13290    1.000
    C58      C        0.40130    0.06320    0.12244    1.000
    C59      C        0.49090    0.10727    0.14327    1.000
    H40      H        0.56300    0.13210    0.12720    1.000
    C60      C        0.42500    0.05381    0.07455    1.000
    Ag11     Ag       0.30487    0.77005    0.70937    1.000
    Ag12     Ag       0.97474    0.44231    0.51598    1.000
    O21      O        0.15760    0.69581    0.68611    1.000
    O22      O        0.04830    0.66770    0.75026    1.000
    O23      O        0.02390    0.58800    0.55353    1.000
    O24      O        0.84530    0.51204    0.55815    1.000
    N11      N        0.39050    0.81274    0.64249    1.000
    N12      N        0.47840    0.87411    0.56850    1.000
    C61      C        0.49800    0.85815    0.64417    1.000
    H41      H        0.54520    0.86970    0.67080    1.000
    C62      C        0.54060    0.88834    0.60740    1.000
    H42      H        0.61570    0.91990    0.61000    1.000
    C63      C        0.37360    0.82831    0.56687    1.000
    H43      H        0.32880    0.81640    0.54000    1.000
    C64      C        0.32910    0.79795    0.60330    1.000
    H44      H        0.25440    0.76630    0.60060    1.000
    C65      C        0.06760    0.66341    0.70989    1.000
    C66      C        0.97350    0.61456    0.68808    1.000
    C67      C        0.86590    0.57741    0.71170    1.000
    H45      H        0.85470    0.58170    0.74170    1.000
    C68      C        0.77530    0.53393    0.69096    1.000
    H46      H        0.70320    0.50900    0.70700    1.000
    C69      C        0.79140    0.52736    0.64676    1.000
    H47      H        0.72770    0.49850    0.63290    1.000
    C70      C        0.90130    0.56320    0.62244    1.000
    C71      C        0.99090    0.60727    0.64327    1.000
    H48      H        0.06300    0.63210    0.62720    1.000
    C72      C        0.92500    0.55381    0.57455    1.000
    Ag13     Ag       0.69513    0.72995    0.70937    1.000
    Ag14     Ag       0.02526    0.05769    0.51598    1.000
    O25      O        0.84240    0.80419    0.68611    1.000
    O26      O        0.95170    0.83230    0.75026    1.000
    O27      O        0.97610    0.91200    0.55353    1.000
    O28      O        0.15470    0.98796    0.55815    1.000
    N13      N        0.60950    0.68726    0.64249    1.000
    N14      N        0.52160    0.62589    0.56850    1.000
    C73      C        0.50200    0.64185    0.64417    1.000
    H49      H        0.45480    0.63030    0.67080    1.000
    C74      C        0.45940    0.61166    0.60740    1.000
    H50      H        0.38430    0.58010    0.61000    1.000
    C75      C        0.62640    0.67169    0.56687    1.000
    H51      H        0.67120    0.68360    0.54000    1.000
    C76      C        0.67090    0.70205    0.60330    1.000
    H52      H        0.74560    0.73370    0.60060    1.000
    C77      C        0.93240    0.83659    0.70989    1.000
    C78      C        0.02650    0.88544    0.68808    1.000
    C79      C        0.13410    0.92259    0.71170    1.000
    H53      H        0.14530    0.91830    0.74170    1.000
    C80      C        0.22470    0.96607    0.69096    1.000
    H54      H        0.29680    0.99100    0.70700    1.000
    C81      C        0.20860    0.97264    0.64676    1.000
    H55      H        0.27230    0.00150    0.63290    1.000
    C82      C        0.09870    0.93680    0.62244    1.000
    C83      C        0.00910    0.89273    0.64327    1.000
    H56      H        0.93700    0.86790    0.62720    1.000
    C84      C        0.07500    0.94619    0.57455    1.000
    Ag15     Ag       0.19513    0.22995    0.20937    1.000
    Ag16     Ag       0.52526    0.55768    0.01598    1.000
    O29      O        0.34240    0.30419    0.18611    1.000
    O30      O        0.45170    0.33230    0.25026    1.000
    O31      O        0.47610    0.41200    0.05353    1.000
    O32      O        0.65470    0.48796    0.05815    1.000
    N15      N        0.10950    0.18726    0.14249    1.000
    N16      N        0.02160    0.12589    0.06850    1.000
    C85      C        0.00200    0.14185    0.14417    1.000
    H57      H        0.95480    0.13030    0.17080    1.000
    C86      C        0.95940    0.11166    0.10740    1.000
    H58      H        0.88430    0.08010    0.11000    1.000
    C87      C        0.12640    0.17169    0.06687    1.000
    H59      H        0.17120    0.18360    0.04000    1.000
    C88      C        0.17090    0.20205    0.10330    1.000
    H60      H        0.24560    0.23370    0.10060    1.000
    C89      C        0.43240    0.33659    0.20989    1.000
    C90      C        0.52650    0.38544    0.18808    1.000
    C91      C        0.63410    0.42259    0.21170    1.000
    H61      H        0.64530    0.41830    0.24170    1.000
    C92      C        0.72470    0.46607    0.19096    1.000
    H62      H        0.79680    0.49100    0.20700    1.000
    C93      C        0.70860    0.47264    0.14676    1.000
    H63      H        0.77230    0.50150    0.13290    1.000
    C94      C        0.59870    0.43680    0.12244    1.000
    C95      C        0.50910    0.39273    0.14327    1.000
    H64      H        0.43700    0.36790    0.12720    1.000
    C96      C        0.57500    0.44619    0.07455    1.000
    Ag17     Ag       0.80487    0.22995    0.70937    1.000
    Ag18     Ag       0.47474    0.55768    0.51598    1.000
    O33      O        0.65760    0.30419    0.68611    1.000
    O34      O        0.54830    0.33230    0.75026    1.000
    O35      O        0.52390    0.41200    0.55353    1.000
    O36      O        0.34530    0.48796    0.55815    1.000
    N17      N        0.89050    0.18726    0.64249    1.000
    N18      N        0.97840    0.12589    0.56850    1.000
    C97      C        0.99800    0.14185    0.64417    1.000
    H65      H        0.04520    0.13030    0.67080    1.000
    C98      C        0.04060    0.11166    0.60740    1.000
    H66      H        0.11570    0.08010    0.61000    1.000
    C99      C        0.87360    0.17169    0.56687    1.000
    H67      H        0.82880    0.18360    0.54000    1.000
    C100     C        0.82910    0.20205    0.60330    1.000
    H68      H        0.75440    0.23370    0.60060    1.000
    C101     C        0.56760    0.33659    0.70989    1.000
    C102     C        0.47350    0.38544    0.68808    1.000
    C103     C        0.36590    0.42259    0.71170    1.000
    H69      H        0.35470    0.41830    0.74170    1.000
    C104     C        0.27530    0.46607    0.69096    1.000
    H70      H        0.20320    0.49100    0.70700    1.000
    C105     C        0.29140    0.47264    0.64676    1.000
    H71      H        0.22770    0.50150    0.63290    1.000
    C106     C        0.40130    0.43680    0.62244    1.000
    C107     C        0.49090    0.39273    0.64327    1.000
    H72      H        0.56300    0.36790    0.62720    1.000
    C108     C        0.42500    0.44619    0.57455    1.000
    Ag19     Ag       0.30487    0.72995    0.20937    1.000
    Ag20     Ag       0.97474    0.05769    0.01598    1.000
    O37      O        0.15760    0.80419    0.18611    1.000
    O38      O        0.04830    0.83230    0.25026    1.000
    O39      O        0.02390    0.91200    0.05353    1.000
    O40      O        0.84530    0.98796    0.05815    1.000
    N19      N        0.39050    0.68726    0.14249    1.000
    N20      N        0.47840    0.62589    0.06850    1.000
    C109     C        0.49800    0.64185    0.14417    1.000
    H73      H        0.54520    0.63030    0.17080    1.000
    C110     C        0.54060    0.61166    0.10740    1.000
    H74      H        0.61570    0.58010    0.11000    1.000
    C111     C        0.37360    0.67169    0.06687    1.000
    H75      H        0.32880    0.68360    0.04000    1.000
    C112     C        0.32910    0.70205    0.10330    1.000
    H76      H        0.25440    0.73370    0.10060    1.000
    C113     C        0.06760    0.83659    0.20989    1.000
    C114     C        0.97350    0.88544    0.18808    1.000
    C115     C        0.86590    0.92259    0.21170    1.000
    H77      H        0.85470    0.91830    0.24170    1.000
    C116     C        0.77530    0.96607    0.19096    1.000
    H78      H        0.70320    0.99100    0.20700    1.000
    C117     C        0.79140    0.97264    0.14676    1.000
    H79      H        0.72770    0.00150    0.13290    1.000
    C118     C        0.90130    0.93680    0.12244    1.000
    C119     C        0.99090    0.89273    0.14327    1.000
    H80      H        0.06300    0.86790    0.12720    1.000
    C120     C        0.92500    0.94619    0.07455    1.000
    Ag21     Ag       0.69513    0.77005    0.20937    1.000
    Ag22     Ag       0.02526    0.44231    0.01598    1.000
    O41      O        0.84240    0.69581    0.18611    1.000
    O42      O        0.95170    0.66770    0.25026    1.000
    O43      O        0.97610    0.58800    0.05353    1.000
    O44      O        0.15470    0.51204    0.05815    1.000
    N21      N        0.60950    0.81274    0.14249    1.000
    N22      N        0.52160    0.87411    0.06850    1.000
    C121     C        0.50200    0.85815    0.14417    1.000
    H81      H        0.45480    0.86970    0.17080    1.000
    C122     C        0.45940    0.88834    0.10740    1.000
    H82      H        0.38430    0.91990    0.11000    1.000
    C123     C        0.62640    0.82831    0.06687    1.000
    H83      H        0.67120    0.81640    0.04000    1.000
    C124     C        0.67090    0.79795    0.10330    1.000
    H84      H        0.74560    0.76630    0.10060    1.000
    C125     C        0.93240    0.66341    0.20989    1.000
    C126     C        0.02650    0.61456    0.18808    1.000
    C127     C        0.13410    0.57741    0.21170    1.000
    H85      H        0.14530    0.58170    0.24170    1.000
    C128     C        0.22470    0.53393    0.19096    1.000
    H86      H        0.29680    0.50900    0.20700    1.000
    C129     C        0.20860    0.52736    0.14676    1.000
    H87      H        0.27230    0.49850    0.13290    1.000
    C130     C        0.09870    0.56320    0.12244    1.000
    C131     C        0.00910    0.60727    0.14327    1.000
    H88      H        0.93700    0.63210    0.12720    1.000
    C132     C        0.07500    0.55381    0.07455    1.000
    Ag23     Ag       0.19513    0.27005    0.70937    1.000
    Ag24     Ag       0.52526    0.94232    0.51598    1.000
    O45      O        0.34240    0.19581    0.68611    1.000
    O46      O        0.45170    0.16770    0.75026    1.000
    O47      O        0.47610    0.08800    0.55353    1.000
    O48      O        0.65470    0.01204    0.55815    1.000
    N23      N        0.10950    0.31274    0.64249    1.000
    N24      N        0.02160    0.37411    0.56850    1.000
    C133     C        0.00200    0.35815    0.64417    1.000
    H89      H        0.95480    0.36970    0.67080    1.000
    C134     C        0.95940    0.38834    0.60740    1.000
    H90      H        0.88430    0.41990    0.61000    1.000
    C135     C        0.12640    0.32831    0.56687    1.000
    H91      H        0.17120    0.31640    0.54000    1.000
    C136     C        0.17090    0.29795    0.60330    1.000
    H92      H        0.24560    0.26630    0.60060    1.000
    C137     C        0.43240    0.16341    0.70989    1.000
    C138     C        0.52650    0.11456    0.68808    1.000
    C139     C        0.63410    0.07741    0.71170    1.000
    H93      H        0.64530    0.08170    0.74170    1.000
    C140     C        0.72470    0.03393    0.69096    1.000
    H94      H        0.79680    0.00900    0.70700    1.000
    C141     C        0.70860    0.02736    0.64676    1.000
    H95      H        0.77230    0.99850    0.63290    1.000
    C142     C        0.59870    0.06320    0.62244    1.000
    C143     C        0.50910    0.10727    0.64327    1.000
    H96      H        0.43700    0.13210    0.62720    1.000
    C144     C        0.57500    0.05381    0.57455    1.000
    Ag25     Ag       0.19513    0.72995    0.79063    1.000
    Ag26     Ag       0.52526    0.05769    0.98402    1.000
    O49      O        0.34240    0.80419    0.81389    1.000
    O50      O        0.45170    0.83230    0.74974    1.000
    O51      O        0.47610    0.91200    0.94647    1.000
    O52      O        0.65470    0.98796    0.94185    1.000
    N25      N        0.10950    0.68726    0.85751    1.000
    N26      N        0.02160    0.62589    0.93150    1.000
    C145     C        0.00200    0.64185    0.85583    1.000
    H97      H        0.95480    0.63030    0.82920    1.000
    C146     C        0.95940    0.61166    0.89260    1.000
    H98      H        0.88430    0.58010    0.89000    1.000
    C147     C        0.12640    0.67169    0.93313    1.000
    H99      H        0.17120    0.68360    0.96000    1.000
    C148     C        0.17090    0.70205    0.89670    1.000
    H100     H        0.24560    0.73370    0.89940    1.000
    C149     C        0.43240    0.83659    0.79011    1.000
    C150     C        0.52650    0.88544    0.81192    1.000
    C151     C        0.63410    0.92259    0.78830    1.000
    H101     H        0.64530    0.91830    0.75830    1.000
    C152     C        0.72470    0.96607    0.80904    1.000
    H102     H        0.79680    0.99100    0.79300    1.000
    C153     C        0.70860    0.97264    0.85324    1.000
    H103     H        0.77230    0.00150    0.86710    1.000
    C154     C        0.59870    0.93680    0.87756    1.000
    C155     C        0.50910    0.89273    0.85673    1.000
    H104     H        0.43700    0.86790    0.87280    1.000
    C156     C        0.57500    0.94619    0.92545    1.000
    Ag27     Ag       0.69513    0.22995    0.29063    1.000
    Ag28     Ag       0.02526    0.55768    0.48402    1.000
    O53      O        0.84240    0.30419    0.31389    1.000
    O54      O        0.95170    0.33230    0.24974    1.000
    O55      O        0.97610    0.41200    0.44647    1.000
    O56      O        0.15470    0.48796    0.44185    1.000
    N27      N        0.60950    0.18726    0.35751    1.000
    N28      N        0.52160    0.12589    0.43150    1.000
    C157     C        0.50200    0.14185    0.35583    1.000
    H105     H        0.45480    0.13030    0.32920    1.000
    C158     C        0.45940    0.11166    0.39260    1.000
    H106     H        0.38430    0.08010    0.39000    1.000
    C159     C        0.62640    0.17169    0.43313    1.000
    H107     H        0.67120    0.18360    0.46000    1.000
    C160     C        0.67090    0.20205    0.39670    1.000
    H108     H        0.74560    0.23370    0.39940    1.000
    C161     C        0.93240    0.33659    0.29011    1.000
    C162     C        0.02650    0.38544    0.31192    1.000
    C163     C        0.13410    0.42259    0.28830    1.000
    H109     H        0.14530    0.41830    0.25830    1.000
    C164     C        0.22470    0.46607    0.30904    1.000
    H110     H        0.29680    0.49100    0.29300    1.000
    C165     C        0.20860    0.47264    0.35324    1.000
    H111     H        0.27230    0.50150    0.36710    1.000
    C166     C        0.09870    0.43680    0.37756    1.000
    C167     C        0.00910    0.39273    0.35673    1.000
    H112     H        0.93700    0.36790    0.37280    1.000
    C168     C        0.07500    0.44619    0.42545    1.000
    Ag29     Ag       0.30487    0.27005    0.29063    1.000
    Ag30     Ag       0.97474    0.94232    0.48402    1.000
    O57      O        0.15760    0.19581    0.31389    1.000
    O58      O        0.04830    0.16770    0.24974    1.000
    O59      O        0.02390    0.08800    0.44647    1.000
    O60      O        0.84530    0.01204    0.44185    1.000
    N29      N        0.39050    0.31274    0.35751    1.000
    N30      N        0.47840    0.37411    0.43150    1.000
    C169     C        0.49800    0.35815    0.35583    1.000
    H113     H        0.54520    0.36970    0.32920    1.000
    C170     C        0.54060    0.38834    0.39260    1.000
    H114     H        0.61570    0.41990    0.39000    1.000
    C171     C        0.37360    0.32831    0.43313    1.000
    H115     H        0.32880    0.31640    0.46000    1.000
    C172     C        0.32910    0.29795    0.39670    1.000
    H116     H        0.25440    0.26630    0.39940    1.000
    C173     C        0.06760    0.16341    0.29011    1.000
    C174     C        0.97350    0.11456    0.31192    1.000
    C175     C        0.86590    0.07741    0.28830    1.000
    H117     H        0.85470    0.08170    0.25830    1.000
    C176     C        0.77530    0.03393    0.30904    1.000
    H118     H        0.70320    0.00900    0.29300    1.000
    C177     C        0.79140    0.02736    0.35324    1.000
    H119     H        0.72770    0.99850    0.36710    1.000
    C178     C        0.90130    0.06320    0.37756    1.000
    C179     C        0.99090    0.10727    0.35673    1.000
    H120     H        0.06300    0.13210    0.37280    1.000
    C180     C        0.92500    0.05381    0.42545    1.000
    Ag31     Ag       0.80487    0.77005    0.79063    1.000
    Ag32     Ag       0.47474    0.44231    0.98402    1.000
    O61      O        0.65760    0.69581    0.81389    1.000
    O62      O        0.54830    0.66770    0.74974    1.000
    O63      O        0.52390    0.58800    0.94647    1.000
    O64      O        0.34530    0.51204    0.94185    1.000
    N31      N        0.89050    0.81274    0.85751    1.000
    N32      N        0.97840    0.87411    0.93150    1.000
    C181     C        0.99800    0.85815    0.85583    1.000
    H121     H        0.04520    0.86970    0.82920    1.000
    C182     C        0.04060    0.88834    0.89260    1.000
    H122     H        0.11570    0.91990    0.89000    1.000
    C183     C        0.87360    0.82831    0.93313    1.000
    H123     H        0.82880    0.81640    0.96000    1.000
    C184     C        0.82910    0.79795    0.89670    1.000
    H124     H        0.75440    0.76630    0.89940    1.000
    C185     C        0.56760    0.66341    0.79011    1.000
    C186     C        0.47350    0.61456    0.81192    1.000
    C187     C        0.36590    0.57741    0.78830    1.000
    H125     H        0.35470    0.58170    0.75830    1.000
    C188     C        0.27530    0.53393    0.80904    1.000
    H126     H        0.20320    0.50900    0.79300    1.000
    C189     C        0.29140    0.52736    0.85324    1.000
    H127     H        0.22770    0.49850    0.86710    1.000
    C190     C        0.40130    0.56320    0.87756    1.000
    C191     C        0.49090    0.60727    0.85673    1.000
    H128     H        0.56300    0.63210    0.87280    1.000
    C192     C        0.42500    0.55381    0.92545    1.000
