# CIF file generated by openbabel 3.1.0, see https://openbabel.org
data_I
_chemical_name_common 'NADZID_clean'
_cell_length_a 8.8326
_cell_length_b 10.159
_cell_length_c 13.979
_cell_angle_alpha 90
_cell_angle_beta 90
_cell_angle_gamma 90
_space_group_name_H-M_alt 'P 1'
_space_group_name_Hall 'P 1'
loop_
    _symmetry_equiv_pos_as_xyz
    x,y,z
loop_
    _atom_site_label
    _atom_site_type_symbol
    _atom_site_fract_x
    _atom_site_fract_y
    _atom_site_fract_z
    _atom_site_occupancy
    Y1       Y        0.74989    0.49993    0.88679    1.000
    Y2       Y        0.75011    0.99993    0.61321    1.000
    Y3       Y        0.25011    0.50007    0.11321    1.000
    Y4       Y        0.24989    0.00007    0.38679    1.000
    H1       H        0.40210    0.65680    0.87720    1.000
    H2       H        0.00810    0.75030    0.75120    1.000
    H3       H        0.40230    0.84280    0.62210    1.000
    H4       H        0.09790    0.15680    0.62280    1.000
    H5       H        0.49190    0.25030    0.74880    1.000
    H6       H        0.09770    0.34280    0.87790    1.000
    H7       H        0.59790    0.34320    0.12280    1.000
    H8       H        0.99190    0.24970    0.24880    1.000
    H9       H        0.59770    0.15720    0.37790    1.000
    H10      H        0.90210    0.84320    0.37720    1.000
    H11      H        0.50810    0.74970    0.25120    1.000
    H12      H        0.90230    0.65720    0.12210    1.000
    C1       C        0.10610    0.63630    0.90790    1.000
    C2       C        0.19120    0.69590    0.82670    1.000
    C3       C        0.34910    0.69520    0.82700    1.000
    C4       C        0.42650    0.75330    0.75040    1.000
    C5       C        0.10610    0.86580    0.59140    1.000
    C6       C        0.19240    0.80320    0.67380    1.000
    C7       C        0.11340    0.74960    0.75100    1.000
    C8       C        0.34980    0.80620    0.67320    1.000
    C9       C        0.59800    0.75900    0.75580    1.000
    C10      C        0.39390    0.13630    0.59210    1.000
    C11      C        0.30880    0.19590    0.67330    1.000
    C12      C        0.15090    0.19520    0.67300    1.000
    C13      C        0.07350    0.25330    0.74960    1.000
    C14      C        0.39390    0.36580    0.90860    1.000
    C15      C        0.30760    0.30320    0.82620    1.000
    C16      C        0.38660    0.24960    0.74900    1.000
    C17      C        0.15020    0.30620    0.82680    1.000
    C18      C        0.90200    0.25900    0.74420    1.000
    C19      C        0.89390    0.36370    0.09210    1.000
    C20      C        0.80880    0.30410    0.17330    1.000
    C21      C        0.65090    0.30480    0.17300    1.000
    C22      C        0.57350    0.24670    0.24960    1.000
    C23      C        0.89390    0.13420    0.40860    1.000
    C24      C        0.80760    0.19680    0.32620    1.000
    C25      C        0.88660    0.25040    0.24900    1.000
    C26      C        0.65020    0.19380    0.32680    1.000
    C27      C        0.40200    0.24100    0.24420    1.000
    C28      C        0.60610    0.86370    0.40790    1.000
    C29      C        0.69120    0.80410    0.32670    1.000
    C30      C        0.84910    0.80480    0.32700    1.000
    C31      C        0.92650    0.74670    0.25040    1.000
    C32      C        0.60610    0.63420    0.09140    1.000
    C33      C        0.69240    0.69680    0.17380    1.000
    C34      C        0.61340    0.75040    0.25100    1.000
    C35      C        0.84980    0.69380    0.17320    1.000
    C36      C        0.09800    0.74100    0.25580    1.000
    O1       O        0.97270    0.60250    0.89370    1.000
    O2       O        0.66570    0.67450    0.80820    1.000
    O3       O        0.97270    0.89880    0.60650    1.000
    O4       O        0.17400    0.62200    0.98610    1.000
    O5       O        0.17400    0.87790    0.51430    1.000
    O6       O        0.66450    0.82520    0.69220    1.000
    O7       O        0.52730    0.10250    0.60630    1.000
    O8       O        0.83430    0.17450    0.69180    1.000
    O9       O        0.52730    0.39880    0.89350    1.000
    O10      O        0.32600    0.12200    0.51390    1.000
    O11      O        0.32600    0.37790    0.98570    1.000
    O12      O        0.83550    0.32520    0.80780    1.000
    O13      O        0.02730    0.39750    0.10630    1.000
    O14      O        0.33430    0.32550    0.19180    1.000
    O15      O        0.02730    0.10120    0.39350    1.000
    O16      O        0.82600    0.37800    0.01390    1.000
    O17      O        0.82600    0.12210    0.48570    1.000
    O18      O        0.33550    0.17480    0.30780    1.000
    O19      O        0.47270    0.89750    0.39370    1.000
    O20      O        0.16570    0.82550    0.30820    1.000
    O21      O        0.47270    0.60120    0.10650    1.000
    O22      O        0.67400    0.87800    0.48610    1.000
    O23      O        0.67400    0.62210    0.01430    1.000
    O24      O        0.16450    0.67480    0.19220    1.000
