# CIF file generated by openbabel 3.1.0, see https://openbabel.org
data_I
_chemical_name_common 'image0'
_cell_length_a 14.475
_cell_length_b 16.613
_cell_length_c 24.839
_cell_angle_alpha 90
_cell_angle_beta 95.062
_cell_angle_gamma 90
_space_group_name_H-M_alt 'P 1'
_space_group_name_Hall 'P 1'
loop_
    _symmetry_equiv_pos_as_xyz
    x,y,z
loop_
    _atom_site_label
    _atom_site_type_symbol
    _atom_site_fract_x
    _atom_site_fract_y
    _atom_site_fract_z
    _atom_site_occupancy
    Cd1      Cd       0.37597    0.26026    0.48663    1.000
    N1       N        0.14210    0.78632    0.23975    1.000
    C1       C        0.09160    0.82542    0.20068    1.000
    H1       H        0.06090    0.79570    0.17290    1.000
    C2       C        0.08297    0.90802    0.19959    1.000
    C3       C        0.12695    0.95212    0.24222    1.000
    H2       H        0.12230    0.00790    0.24270    1.000
    C4       C        0.17810    0.91163    0.28427    1.000
    C5       C        0.18190    0.82890    0.28056    1.000
    H3       H        0.21470    0.80100    0.30860    1.000
    N2       N        0.98466    0.91517    0.11213    1.000
    H4       H        0.97860    0.86410    0.10730    1.000
    N3       N        0.02711    0.03127    0.15274    1.000
    N4       N        0.90509    0.11883    0.02997    1.000
    C6       C        0.03143    0.95229    0.15551    1.000
    C7       C        0.97650    0.04635    0.10403    1.000
    C8       C        0.94980    0.97351    0.07832    1.000
    C9       C        0.89800    0.97372    0.02847    1.000
    H5       H        0.87800    0.92630    0.01130    1.000
    C10      C        0.87790    0.04829    0.00600    1.000
    H6       H        0.84380    0.05030    0.97250    1.000
    C11      C        0.95250    0.11831    0.07777    1.000
    H7       H        0.97030    0.16690    0.09420    1.000
    N5       N        0.27379    0.92489    0.37251    1.000
    H8       H        0.28490    0.87460    0.37830    1.000
    N6       N        0.21791    0.03750    0.33135    1.000
    N7       N        0.33654    0.13596    0.45082    1.000
    C12      C        0.22360    0.95698    0.32893    1.000
    C13      C        0.26850    0.05706    0.37927    1.000
    C14      C        0.30320    0.98722    0.40526    1.000
    C15      C        0.35500    0.99164    0.45531    1.000
    H9       H        0.37830    0.94600    0.47350    1.000
    C16      C        0.36930    0.06810    0.47607    1.000
    H10      H        0.40350    0.07340    0.50940    1.000
    C17      C        0.28820    0.13136    0.40306    1.000
    H11      H        0.26730    0.17820    0.38540    1.000
    O1       O        0.99589    0.76540    0.42801    1.000
    O2       O        0.04123    0.70653    0.50337    1.000
    O3       O        0.13850    0.29037    0.43099    1.000
    O4       O        0.28585    0.32604    0.42198    1.000
    C18      C        0.05650    0.72790    0.45699    1.000
    C19      C        0.14520    0.70760    0.43480    1.000
    H12      H        0.19530    0.71380    0.46310    1.000
    H13      H        0.15580    0.74550    0.40620    1.000
    C20      C        0.14780    0.62245    0.41228    1.000
    C21      C        0.07030    0.57500    0.40415    1.000
    H14      H        0.01280    0.59610    0.41070    1.000
    C22      C        0.07590    0.49550    0.38614    1.000
    H15      H        0.02250    0.46420    0.38150    1.000
    C23      C        0.16010    0.46295    0.37513    1.000
    C24      C        0.23720    0.51240    0.38091    1.000
    H16      H        0.29400    0.49230    0.37240    1.000
    C25      C        0.23200    0.59080    0.39901    1.000
    H17      H        0.28500    0.62270    0.40230    1.000
    C26      C        0.16840    0.37610    0.35926    1.000
    H18      H        0.21280    0.37110    0.33240    1.000
    H19      H        0.10890    0.35660    0.34350    1.000
    C27      C        0.19980    0.32646    0.40816    1.000
    Cd2      Cd       0.87597    0.76026    0.48663    1.000
    N8       N        0.64210    0.28632    0.23975    1.000
    C28      C        0.59160    0.32542    0.20068    1.000
    H20      H        0.56090    0.29570    0.17290    1.000
    C29      C        0.58297    0.40802    0.19959    1.000
    C30      C        0.62695    0.45212    0.24222    1.000
    H21      H        0.62230    0.50790    0.24270    1.000
    C31      C        0.67810    0.41163    0.28427    1.000
    C32      C        0.68190    0.32890    0.28056    1.000
    H22      H        0.71470    0.30100    0.30860    1.000
    N9       N        0.48466    0.41517    0.11213    1.000
    H23      H        0.47860    0.36410    0.10730    1.000
    N10      N        0.52711    0.53127    0.15274    1.000
    N11      N        0.40509    0.61883    0.02997    1.000
    C33      C        0.53143    0.45229    0.15551    1.000
    C34      C        0.47650    0.54635    0.10403    1.000
    C35      C        0.44980    0.47351    0.07832    1.000
    C36      C        0.39800    0.47372    0.02847    1.000
    H24      H        0.37800    0.42630    0.01130    1.000
    C37      C        0.37790    0.54829    0.00600    1.000
    H25      H        0.34380    0.55030    0.97250    1.000
    C38      C        0.45250    0.61831    0.07777    1.000
    H26      H        0.47030    0.66690    0.09420    1.000
    N12      N        0.77379    0.42489    0.37251    1.000
    H27      H        0.78490    0.37460    0.37830    1.000
    N13      N        0.71791    0.53750    0.33135    1.000
    N14      N        0.83654    0.63596    0.45082    1.000
    C39      C        0.72360    0.45698    0.32893    1.000
    C40      C        0.76850    0.55706    0.37927    1.000
    C41      C        0.80320    0.48722    0.40526    1.000
    C42      C        0.85500    0.49164    0.45531    1.000
    H28      H        0.87830    0.44600    0.47350    1.000
    C43      C        0.86930    0.56810    0.47607    1.000
    H29      H        0.90350    0.57340    0.50940    1.000
    C44      C        0.78820    0.63136    0.40306    1.000
    H30      H        0.76730    0.67820    0.38540    1.000
    O5       O        0.49589    0.26540    0.42801    1.000
    O6       O        0.54123    0.20653    0.50337    1.000
    O7       O        0.63850    0.79037    0.43099    1.000
    O8       O        0.78585    0.82604    0.42198    1.000
    C45      C        0.55650    0.22790    0.45699    1.000
    C46      C        0.64520    0.20760    0.43480    1.000
    H31      H        0.69530    0.21380    0.46310    1.000
    H32      H        0.65580    0.24550    0.40620    1.000
    C47      C        0.64780    0.12245    0.41228    1.000
    C48      C        0.57030    0.07500    0.40415    1.000
    H33      H        0.51280    0.09610    0.41070    1.000
    C49      C        0.57590    0.99550    0.38614    1.000
    H34      H        0.52250    0.96420    0.38150    1.000
    C50      C        0.66010    0.96295    0.37513    1.000
    C51      C        0.73720    0.01240    0.38091    1.000
    H35      H        0.79400    0.99230    0.37240    1.000
    C52      C        0.73200    0.09080    0.39901    1.000
    H36      H        0.78500    0.12270    0.40230    1.000
    C53      C        0.66840    0.87610    0.35926    1.000
    H37      H        0.71280    0.87110    0.33240    1.000
    H38      H        0.60890    0.85660    0.34350    1.000
    C54      C        0.69980    0.82646    0.40816    1.000
    Cd3      Cd       0.62403    0.26026    0.01337    1.000
    N15      N        0.85790    0.78632    0.26025    1.000
    C55      C        0.90840    0.82542    0.29932    1.000
    H39      H        0.93910    0.79570    0.32710    1.000
    C56      C        0.91703    0.90802    0.30041    1.000
    C57      C        0.87305    0.95212    0.25778    1.000
    H40      H        0.87770    0.00790    0.25730    1.000
    C58      C        0.82190    0.91163    0.21573    1.000
    C59      C        0.81810    0.82890    0.21944    1.000
    H41      H        0.78530    0.80100    0.19140    1.000
    N16      N        0.01534    0.91517    0.38787    1.000
    H42      H        0.02140    0.86410    0.39270    1.000
    N17      N        0.97289    0.03127    0.34726    1.000
    N18      N        0.09491    0.11883    0.47003    1.000
    C60      C        0.96857    0.95229    0.34449    1.000
    C61      C        0.02350    0.04635    0.39597    1.000
    C62      C        0.05020    0.97351    0.42168    1.000
    C63      C        0.10200    0.97372    0.47153    1.000
    H43      H        0.12200    0.92630    0.48870    1.000
    C64      C        0.12210    0.04829    0.49400    1.000
    H44      H        0.15620    0.05030    0.52750    1.000
    C65      C        0.04750    0.11831    0.42223    1.000
    H45      H        0.02970    0.16690    0.40580    1.000
    N19      N        0.72621    0.92489    0.12749    1.000
    H46      H        0.71510    0.87460    0.12170    1.000
    N20      N        0.78209    0.03750    0.16865    1.000
    N21      N        0.66346    0.13596    0.04918    1.000
    C66      C        0.77640    0.95698    0.17107    1.000
    C67      C        0.73150    0.05706    0.12073    1.000
    C68      C        0.69680    0.98722    0.09474    1.000
    C69      C        0.64500    0.99164    0.04469    1.000
    H47      H        0.62170    0.94600    0.02650    1.000
    C70      C        0.63070    0.06810    0.02393    1.000
    H48      H        0.59650    0.07340    0.99060    1.000
    C71      C        0.71180    0.13136    0.09694    1.000
    H49      H        0.73270    0.17820    0.11460    1.000
    O9       O        0.00411    0.76540    0.07199    1.000
    O10      O        0.95877    0.70653    0.99663    1.000
    O11      O        0.86150    0.29037    0.06901    1.000
    O12      O        0.71415    0.32604    0.07802    1.000
    C72      C        0.94350    0.72790    0.04301    1.000
    C73      C        0.85480    0.70760    0.06520    1.000
    H50      H        0.80470    0.71380    0.03690    1.000
    H51      H        0.84420    0.74550    0.09380    1.000
    C74      C        0.85220    0.62245    0.08772    1.000
    C75      C        0.92970    0.57500    0.09585    1.000
    H52      H        0.98720    0.59610    0.08930    1.000
    C76      C        0.92410    0.49550    0.11386    1.000
    H53      H        0.97750    0.46420    0.11850    1.000
    C77      C        0.83990    0.46295    0.12487    1.000
    C78      C        0.76280    0.51240    0.11909    1.000
    H54      H        0.70600    0.49230    0.12760    1.000
    C79      C        0.76800    0.59080    0.10099    1.000
    H55      H        0.71500    0.62270    0.09770    1.000
    C80      C        0.83160    0.37610    0.14074    1.000
    H56      H        0.78720    0.37110    0.16760    1.000
    H57      H        0.89110    0.35660    0.15650    1.000
    C81      C        0.80020    0.32646    0.09184    1.000
    Cd4      Cd       0.12403    0.76026    0.01337    1.000
    N22      N        0.35790    0.28632    0.26025    1.000
    C82      C        0.40840    0.32542    0.29932    1.000
    H58      H        0.43910    0.29570    0.32710    1.000
    C83      C        0.41703    0.40802    0.30041    1.000
    C84      C        0.37305    0.45212    0.25778    1.000
    H59      H        0.37770    0.50790    0.25730    1.000
    C85      C        0.32190    0.41163    0.21573    1.000
    C86      C        0.31810    0.32890    0.21944    1.000
    H60      H        0.28530    0.30100    0.19140    1.000
    N23      N        0.51534    0.41517    0.38787    1.000
    H61      H        0.52140    0.36410    0.39270    1.000
    N24      N        0.47289    0.53127    0.34726    1.000
    N25      N        0.59491    0.61883    0.47003    1.000
    C87      C        0.46857    0.45229    0.34449    1.000
    C88      C        0.52350    0.54635    0.39597    1.000
    C89      C        0.55020    0.47351    0.42168    1.000
    C90      C        0.60200    0.47372    0.47153    1.000
    H62      H        0.62200    0.42630    0.48870    1.000
    C91      C        0.62210    0.54829    0.49400    1.000
    H63      H        0.65620    0.55030    0.52750    1.000
    C92      C        0.54750    0.61831    0.42223    1.000
    H64      H        0.52970    0.66690    0.40580    1.000
    N26      N        0.22621    0.42489    0.12749    1.000
    H65      H        0.21510    0.37460    0.12170    1.000
    N27      N        0.28209    0.53750    0.16865    1.000
    N28      N        0.16346    0.63596    0.04918    1.000
    C93      C        0.27640    0.45698    0.17107    1.000
    C94      C        0.23150    0.55706    0.12073    1.000
    C95      C        0.19680    0.48722    0.09474    1.000
    C96      C        0.14500    0.49164    0.04469    1.000
    H66      H        0.12170    0.44600    0.02650    1.000
    C97      C        0.13070    0.56810    0.02393    1.000
    H67      H        0.09650    0.57340    0.99060    1.000
    C98      C        0.21180    0.63136    0.09694    1.000
    H68      H        0.23270    0.67820    0.11460    1.000
    O13      O        0.50411    0.26540    0.07199    1.000
    O14      O        0.45877    0.20653    0.99663    1.000
    O15      O        0.36150    0.79037    0.06901    1.000
    O16      O        0.21415    0.82604    0.07802    1.000
    C99      C        0.44350    0.22790    0.04301    1.000
    C100     C        0.35480    0.20760    0.06520    1.000
    H69      H        0.30470    0.21380    0.03690    1.000
    H70      H        0.34420    0.24550    0.09380    1.000
    C101     C        0.35220    0.12245    0.08772    1.000
    C102     C        0.42970    0.07500    0.09585    1.000
    H71      H        0.48720    0.09610    0.08930    1.000
    C103     C        0.42410    0.99550    0.11386    1.000
    H72      H        0.47750    0.96420    0.11850    1.000
    C104     C        0.33990    0.96295    0.12487    1.000
    C105     C        0.26280    0.01240    0.11909    1.000
    H73      H        0.20600    0.99230    0.12760    1.000
    C106     C        0.26800    0.09080    0.10099    1.000
    H74      H        0.21500    0.12270    0.09770    1.000
    C107     C        0.33160    0.87610    0.14074    1.000
    H75      H        0.28720    0.87110    0.16760    1.000
    H76      H        0.39110    0.85660    0.15650    1.000
    C108     C        0.30020    0.82646    0.09184    1.000
    Cd5      Cd       0.62403    0.73974    0.51337    1.000
    N29      N        0.85790    0.21368    0.76025    1.000
    C109     C        0.90840    0.17458    0.79932    1.000
    H77      H        0.93910    0.20430    0.82710    1.000
    C110     C        0.91703    0.09198    0.80041    1.000
    C111     C        0.87305    0.04788    0.75778    1.000
    H78      H        0.87770    0.99210    0.75730    1.000
    C112     C        0.82190    0.08837    0.71573    1.000
    C113     C        0.81810    0.17110    0.71944    1.000
    H79      H        0.78530    0.19900    0.69140    1.000
    N30      N        0.01534    0.08483    0.88787    1.000
    H80      H        0.02140    0.13590    0.89270    1.000
    N31      N        0.97289    0.96873    0.84726    1.000
    N32      N        0.09491    0.88117    0.97003    1.000
    C114     C        0.96857    0.04771    0.84449    1.000
    C115     C        0.02350    0.95365    0.89597    1.000
    C116     C        0.05020    0.02649    0.92168    1.000
    C117     C        0.10200    0.02628    0.97153    1.000
    H81      H        0.12200    0.07370    0.98870    1.000
    C118     C        0.12210    0.95171    0.99400    1.000
    H82      H        0.15620    0.94970    0.02750    1.000
    C119     C        0.04750    0.88169    0.92223    1.000
    H83      H        0.02970    0.83310    0.90580    1.000
    N33      N        0.72621    0.07511    0.62749    1.000
    H84      H        0.71510    0.12540    0.62170    1.000
    N34      N        0.78209    0.96250    0.66865    1.000
    N35      N        0.66346    0.86404    0.54918    1.000
    C120     C        0.77640    0.04302    0.67107    1.000
    C121     C        0.73150    0.94294    0.62073    1.000
    C122     C        0.69680    0.01278    0.59474    1.000
    C123     C        0.64500    0.00836    0.54469    1.000
    H85      H        0.62170    0.05400    0.52650    1.000
    C124     C        0.63070    0.93190    0.52393    1.000
    H86      H        0.59650    0.92660    0.49060    1.000
    C125     C        0.71180    0.86864    0.59694    1.000
    H87      H        0.73270    0.82180    0.61460    1.000
    O17      O        0.00411    0.23460    0.57199    1.000
    O18      O        0.95877    0.29347    0.49663    1.000
    O19      O        0.86150    0.70963    0.56901    1.000
    O20      O        0.71415    0.67396    0.57802    1.000
    C126     C        0.94350    0.27210    0.54301    1.000
    C127     C        0.85480    0.29240    0.56520    1.000
    H88      H        0.80470    0.28620    0.53690    1.000
    H89      H        0.84420    0.25450    0.59380    1.000
    C128     C        0.85220    0.37755    0.58772    1.000
    C129     C        0.92970    0.42500    0.59585    1.000
    H90      H        0.98720    0.40390    0.58930    1.000
    C130     C        0.92410    0.50450    0.61386    1.000
    H91      H        0.97750    0.53580    0.61850    1.000
    C131     C        0.83990    0.53705    0.62487    1.000
    C132     C        0.76280    0.48760    0.61909    1.000
    H92      H        0.70600    0.50770    0.62760    1.000
    C133     C        0.76800    0.40920    0.60099    1.000
    H93      H        0.71500    0.37730    0.59770    1.000
    C134     C        0.83160    0.62390    0.64074    1.000
    H94      H        0.78720    0.62890    0.66760    1.000
    H95      H        0.89110    0.64340    0.65650    1.000
    C135     C        0.80020    0.67354    0.59184    1.000
    Cd6      Cd       0.12403    0.23974    0.51337    1.000
    N36      N        0.35790    0.71368    0.76025    1.000
    C136     C        0.40840    0.67458    0.79932    1.000
    H96      H        0.43910    0.70430    0.82710    1.000
    C137     C        0.41703    0.59198    0.80041    1.000
    C138     C        0.37305    0.54788    0.75778    1.000
    H97      H        0.37770    0.49210    0.75730    1.000
    C139     C        0.32190    0.58837    0.71573    1.000
    C140     C        0.31810    0.67110    0.71944    1.000
    H98      H        0.28530    0.69900    0.69140    1.000
    N37      N        0.51534    0.58483    0.88787    1.000
    H99      H        0.52140    0.63590    0.89270    1.000
    N38      N        0.47289    0.46873    0.84726    1.000
    N39      N        0.59491    0.38117    0.97003    1.000
    C141     C        0.46857    0.54771    0.84449    1.000
    C142     C        0.52350    0.45365    0.89597    1.000
    C143     C        0.55020    0.52649    0.92168    1.000
    C144     C        0.60200    0.52628    0.97153    1.000
    H100     H        0.62200    0.57370    0.98870    1.000
    C145     C        0.62210    0.45171    0.99400    1.000
    H101     H        0.65620    0.44970    0.02750    1.000
    C146     C        0.54750    0.38169    0.92223    1.000
    H102     H        0.52970    0.33310    0.90580    1.000
    N40      N        0.22621    0.57511    0.62749    1.000
    H103     H        0.21510    0.62540    0.62170    1.000
    N41      N        0.28209    0.46250    0.66865    1.000
    N42      N        0.16346    0.36404    0.54918    1.000
    C147     C        0.27640    0.54302    0.67107    1.000
    C148     C        0.23150    0.44294    0.62073    1.000
    C149     C        0.19680    0.51278    0.59474    1.000
    C150     C        0.14500    0.50836    0.54469    1.000
    H104     H        0.12170    0.55400    0.52650    1.000
    C151     C        0.13070    0.43190    0.52393    1.000
    H105     H        0.09650    0.42660    0.49060    1.000
    C152     C        0.21180    0.36864    0.59694    1.000
    H106     H        0.23270    0.32180    0.61460    1.000
    O21      O        0.50411    0.73460    0.57199    1.000
    O22      O        0.45877    0.79347    0.49663    1.000
    O23      O        0.36150    0.20963    0.56901    1.000
    O24      O        0.21415    0.17396    0.57802    1.000
    C153     C        0.44350    0.77210    0.54301    1.000
    C154     C        0.35480    0.79240    0.56520    1.000
    H107     H        0.30470    0.78620    0.53690    1.000
    H108     H        0.34420    0.75450    0.59380    1.000
    C155     C        0.35220    0.87755    0.58772    1.000
    C156     C        0.42970    0.92500    0.59585    1.000
    H109     H        0.48720    0.90390    0.58930    1.000
    C157     C        0.42410    0.00450    0.61386    1.000
    H110     H        0.47750    0.03580    0.61850    1.000
    C158     C        0.33990    0.03705    0.62487    1.000
    C159     C        0.26280    0.98760    0.61909    1.000
    H111     H        0.20600    0.00770    0.62760    1.000
    C160     C        0.26800    0.90920    0.60099    1.000
    H112     H        0.21500    0.87730    0.59770    1.000
    C161     C        0.33160    0.12390    0.64074    1.000
    H113     H        0.28720    0.12890    0.66760    1.000
    H114     H        0.39110    0.14340    0.65650    1.000
    C162     C        0.30020    0.17354    0.59184    1.000
    Cd7      Cd       0.37597    0.73974    0.98663    1.000
    N43      N        0.14210    0.21368    0.73975    1.000
    C163     C        0.09160    0.17458    0.70068    1.000
    H115     H        0.06090    0.20430    0.67290    1.000
    C164     C        0.08297    0.09198    0.69959    1.000
    C165     C        0.12695    0.04788    0.74222    1.000
    H116     H        0.12230    0.99210    0.74270    1.000
    C166     C        0.17810    0.08837    0.78427    1.000
    C167     C        0.18190    0.17110    0.78056    1.000
    H117     H        0.21470    0.19900    0.80860    1.000
    N44      N        0.98466    0.08483    0.61213    1.000
    H118     H        0.97860    0.13590    0.60730    1.000
    N45      N        0.02711    0.96873    0.65274    1.000
    N46      N        0.90509    0.88117    0.52997    1.000
    C168     C        0.03143    0.04771    0.65551    1.000
    C169     C        0.97650    0.95365    0.60403    1.000
    C170     C        0.94980    0.02649    0.57832    1.000
    C171     C        0.89800    0.02628    0.52847    1.000
    H119     H        0.87800    0.07370    0.51130    1.000
    C172     C        0.87790    0.95171    0.50600    1.000
    H120     H        0.84380    0.94970    0.47250    1.000
    C173     C        0.95250    0.88169    0.57777    1.000
    H121     H        0.97030    0.83310    0.59420    1.000
    N47      N        0.27379    0.07511    0.87251    1.000
    H122     H        0.28490    0.12540    0.87830    1.000
    N48      N        0.21791    0.96250    0.83135    1.000
    N49      N        0.33654    0.86404    0.95082    1.000
    C174     C        0.22360    0.04302    0.82893    1.000
    C175     C        0.26850    0.94294    0.87927    1.000
    C176     C        0.30320    0.01278    0.90526    1.000
    C177     C        0.35500    0.00836    0.95531    1.000
    H123     H        0.37830    0.05400    0.97350    1.000
    C178     C        0.36930    0.93190    0.97607    1.000
    H124     H        0.40350    0.92660    0.00940    1.000
    C179     C        0.28820    0.86864    0.90306    1.000
    H125     H        0.26730    0.82180    0.88540    1.000
    O25      O        0.99589    0.23460    0.92801    1.000
    O26      O        0.04123    0.29347    0.00337    1.000
    O27      O        0.13850    0.70963    0.93099    1.000
    O28      O        0.28585    0.67396    0.92198    1.000
    C180     C        0.05650    0.27210    0.95699    1.000
    C181     C        0.14520    0.29240    0.93480    1.000
    H126     H        0.19530    0.28620    0.96310    1.000
    H127     H        0.15580    0.25450    0.90620    1.000
    C182     C        0.14780    0.37755    0.91228    1.000
    C183     C        0.07030    0.42500    0.90415    1.000
    H128     H        0.01280    0.40390    0.91070    1.000
    C184     C        0.07590    0.50450    0.88614    1.000
    H129     H        0.02250    0.53580    0.88150    1.000
    C185     C        0.16010    0.53705    0.87513    1.000
    C186     C        0.23720    0.48760    0.88091    1.000
    H130     H        0.29400    0.50770    0.87240    1.000
    C187     C        0.23200    0.40920    0.89901    1.000
    H131     H        0.28500    0.37730    0.90230    1.000
    C188     C        0.16840    0.62390    0.85926    1.000
    H132     H        0.21280    0.62890    0.83240    1.000
    H133     H        0.10890    0.64340    0.84350    1.000
    C189     C        0.19980    0.67354    0.90816    1.000
    Cd8      Cd       0.87597    0.23974    0.98663    1.000
    N50      N        0.64210    0.71368    0.73975    1.000
    C190     C        0.59160    0.67458    0.70068    1.000
    H134     H        0.56090    0.70430    0.67290    1.000
    C191     C        0.58297    0.59198    0.69959    1.000
    C192     C        0.62695    0.54788    0.74222    1.000
    H135     H        0.62230    0.49210    0.74270    1.000
    C193     C        0.67810    0.58837    0.78427    1.000
    C194     C        0.68190    0.67110    0.78056    1.000
    H136     H        0.71470    0.69900    0.80860    1.000
    N51      N        0.48466    0.58483    0.61213    1.000
    H137     H        0.47860    0.63590    0.60730    1.000
    N52      N        0.52711    0.46873    0.65274    1.000
    N53      N        0.40509    0.38117    0.52997    1.000
    C195     C        0.53143    0.54771    0.65551    1.000
    C196     C        0.47650    0.45365    0.60403    1.000
    C197     C        0.44980    0.52649    0.57832    1.000
    C198     C        0.39800    0.52628    0.52847    1.000
    H138     H        0.37800    0.57370    0.51130    1.000
    C199     C        0.37790    0.45171    0.50600    1.000
    H139     H        0.34380    0.44970    0.47250    1.000
    C200     C        0.45250    0.38169    0.57777    1.000
    H140     H        0.47030    0.33310    0.59420    1.000
    N54      N        0.77379    0.57511    0.87251    1.000
    H141     H        0.78490    0.62540    0.87830    1.000
    N55      N        0.71791    0.46250    0.83135    1.000
    N56      N        0.83654    0.36404    0.95082    1.000
    C201     C        0.72360    0.54302    0.82893    1.000
    C202     C        0.76850    0.44294    0.87927    1.000
    C203     C        0.80320    0.51278    0.90526    1.000
    C204     C        0.85500    0.50836    0.95531    1.000
    H142     H        0.87830    0.55400    0.97350    1.000
    C205     C        0.86930    0.43190    0.97607    1.000
    H143     H        0.90350    0.42660    0.00940    1.000
    C206     C        0.78820    0.36864    0.90306    1.000
    H144     H        0.76730    0.32180    0.88540    1.000
    O29      O        0.49589    0.73460    0.92801    1.000
    O30      O        0.54123    0.79347    0.00337    1.000
    O31      O        0.63850    0.20963    0.93099    1.000
    O32      O        0.78585    0.17396    0.92198    1.000
    C207     C        0.55650    0.77210    0.95699    1.000
    C208     C        0.64520    0.79240    0.93480    1.000
    H145     H        0.69530    0.78620    0.96310    1.000
    H146     H        0.65580    0.75450    0.90620    1.000
    C209     C        0.64780    0.87755    0.91228    1.000
    C210     C        0.57030    0.92500    0.90415    1.000
    H147     H        0.51280    0.90390    0.91070    1.000
    C211     C        0.57590    0.00450    0.88614    1.000
    H148     H        0.52250    0.03580    0.88150    1.000
    C212     C        0.66010    0.03705    0.87513    1.000
    C213     C        0.73720    0.98760    0.88091    1.000
    H149     H        0.79400    0.00770    0.87240    1.000
    C214     C        0.73200    0.90920    0.89901    1.000
    H150     H        0.78500    0.87730    0.90230    1.000
    C215     C        0.66840    0.12390    0.85926    1.000
    H151     H        0.71280    0.12890    0.83240    1.000
    H152     H        0.60890    0.14340    0.84350    1.000
    C216     C        0.69980    0.17354    0.90816    1.000
