# CIF file generated by openbabel 3.1.0, see https://openbabel.org
data_I
_chemical_name_common 'image0'
_cell_length_a 15.576
_cell_length_b 16.427
_cell_length_c 12.477
_cell_angle_alpha 90
_cell_angle_beta 92.314
_cell_angle_gamma 90
_space_group_name_H-M_alt 'P 1'
_space_group_name_Hall 'P 1'
loop_
    _symmetry_equiv_pos_as_xyz
    x,y,z
loop_
    _atom_site_label
    _atom_site_type_symbol
    _atom_site_fract_x
    _atom_site_fract_y
    _atom_site_fract_z
    _atom_site_occupancy
    Dy1      Dy       0.11973    0.18711    0.90730    1.000
    S1       S        0.10489    0.21941    0.66356    1.000
    S2       S        0.18876    0.35127    0.07290    1.000
    O1       O        0.05680    0.06250    0.89930    1.000
    O2       O        0.10110    0.14100    0.72360    1.000
    O3       O        0.08370    0.14510    0.07280    1.000
    O4       O        0.02160    0.23370    0.60750    1.000
    O5       O        0.13580    0.31110    0.99020    1.000
    O6       O        0.12070    0.28190    0.74820    1.000
    O7       O        0.07280    0.04230    0.18280    1.000
    O8       O        0.17350    0.21770    0.58930    1.000
    O9       O        0.26010    0.39370    0.02740    1.000
    C1       C        0.06500    0.07310    0.09230    1.000
    O10      O        0.13480    0.40020    0.13500    1.000
    O11      O        0.23410    0.29130    0.13940    1.000
    C2       C        0.04160    0.01920    0.99780    1.000
    H1       H        0.08350    0.97470    0.00090    1.000
    Dy2      Dy       0.61973    0.68711    0.90730    1.000
    S3       S        0.60489    0.71941    0.66356    1.000
    S4       S        0.68876    0.85127    0.07290    1.000
    O12      O        0.55680    0.56250    0.89930    1.000
    O13      O        0.60110    0.64100    0.72360    1.000
    O14      O        0.58370    0.64510    0.07280    1.000
    O15      O        0.52160    0.73370    0.60750    1.000
    O16      O        0.63580    0.81110    0.99020    1.000
    O17      O        0.62070    0.78190    0.74820    1.000
    O18      O        0.57280    0.54230    0.18280    1.000
    O19      O        0.67350    0.71770    0.58930    1.000
    O20      O        0.76010    0.89370    0.02740    1.000
    C3       C        0.56500    0.57310    0.09230    1.000
    O21      O        0.63480    0.90020    0.13500    1.000
    O22      O        0.73410    0.79130    0.13940    1.000
    C4       C        0.54160    0.51920    0.99780    1.000
    H2       H        0.58350    0.47470    0.00090    1.000
    Dy3      Dy       0.88027    0.18711    0.59270    1.000
    S5       S        0.89511    0.21941    0.83644    1.000
    S6       S        0.81124    0.35127    0.42710    1.000
    O23      O        0.94320    0.06250    0.60070    1.000
    O24      O        0.89890    0.14100    0.77640    1.000
    O25      O        0.91630    0.14510    0.42720    1.000
    O26      O        0.97840    0.23370    0.89250    1.000
    O27      O        0.86420    0.31110    0.50980    1.000
    O28      O        0.87930    0.28190    0.75180    1.000
    O29      O        0.92720    0.04230    0.31720    1.000
    O30      O        0.82650    0.21770    0.91070    1.000
    O31      O        0.73990    0.39370    0.47260    1.000
    C5       C        0.93500    0.07310    0.40770    1.000
    O32      O        0.86520    0.40020    0.36500    1.000
    O33      O        0.76590    0.29130    0.36060    1.000
    C6       C        0.95840    0.01920    0.50220    1.000
    H3       H        0.91650    0.97470    0.49910    1.000
    Dy4      Dy       0.38027    0.68711    0.59270    1.000
    S7       S        0.39511    0.71941    0.83644    1.000
    S8       S        0.31124    0.85127    0.42710    1.000
    O34      O        0.44320    0.56250    0.60070    1.000
    O35      O        0.39890    0.64100    0.77640    1.000
    O36      O        0.41630    0.64510    0.42720    1.000
    O37      O        0.47840    0.73370    0.89250    1.000
    O38      O        0.36420    0.81110    0.50980    1.000
    O39      O        0.37930    0.78190    0.75180    1.000
    O40      O        0.42720    0.54230    0.31720    1.000
    O41      O        0.32650    0.71770    0.91070    1.000
    O42      O        0.23990    0.89370    0.47260    1.000
    C7       C        0.43500    0.57310    0.40770    1.000
    O43      O        0.36520    0.90020    0.36500    1.000
    O44      O        0.26590    0.79130    0.36060    1.000
    C8       C        0.45840    0.51920    0.50220    1.000
    H4       H        0.41650    0.47470    0.49910    1.000
    Dy5      Dy       0.88027    0.81289    0.09270    1.000
    S9       S        0.89511    0.78059    0.33644    1.000
    S10      S        0.81124    0.64873    0.92710    1.000
    O45      O        0.94320    0.93750    0.10070    1.000
    O46      O        0.89890    0.85900    0.27640    1.000
    O47      O        0.91630    0.85490    0.92720    1.000
    O48      O        0.97840    0.76630    0.39250    1.000
    O49      O        0.86420    0.68890    0.00980    1.000
    O50      O        0.87930    0.71810    0.25180    1.000
    O51      O        0.92720    0.95770    0.81720    1.000
    O52      O        0.82650    0.78230    0.41070    1.000
    O53      O        0.73990    0.60630    0.97260    1.000
    C9       C        0.93500    0.92690    0.90770    1.000
    O54      O        0.86520    0.59980    0.86500    1.000
    O55      O        0.76590    0.70870    0.86060    1.000
    C10      C        0.95840    0.98080    0.00220    1.000
    H5       H        0.91650    0.02530    0.99910    1.000
    Dy6      Dy       0.38027    0.31289    0.09270    1.000
    S11      S        0.39511    0.28059    0.33644    1.000
    S12      S        0.31124    0.14873    0.92710    1.000
    O56      O        0.44320    0.43750    0.10070    1.000
    O57      O        0.39890    0.35900    0.27640    1.000
    O58      O        0.41630    0.35490    0.92720    1.000
    O59      O        0.47840    0.26630    0.39250    1.000
    O60      O        0.36420    0.18890    0.00980    1.000
    O61      O        0.37930    0.21810    0.25180    1.000
    O62      O        0.42720    0.45770    0.81720    1.000
    O63      O        0.32650    0.28230    0.41070    1.000
    O64      O        0.23990    0.10630    0.97260    1.000
    C11      C        0.43500    0.42690    0.90770    1.000
    O65      O        0.36520    0.09980    0.86500    1.000
    O66      O        0.26590    0.20870    0.86060    1.000
    C12      C        0.45840    0.48080    0.00220    1.000
    H6       H        0.41650    0.52530    0.99910    1.000
    Dy7      Dy       0.11973    0.81289    0.40730    1.000
    S13      S        0.10489    0.78059    0.16356    1.000
    S14      S        0.18876    0.64873    0.57290    1.000
    O67      O        0.05680    0.93750    0.39930    1.000
    O68      O        0.10110    0.85900    0.22360    1.000
    O69      O        0.08370    0.85490    0.57280    1.000
    O70      O        0.02160    0.76630    0.10750    1.000
    O71      O        0.13580    0.68890    0.49020    1.000
    O72      O        0.12070    0.71810    0.24820    1.000
    O73      O        0.07280    0.95770    0.68280    1.000
    O74      O        0.17350    0.78230    0.08930    1.000
    O75      O        0.26010    0.60630    0.52740    1.000
    C13      C        0.06500    0.92690    0.59230    1.000
    O76      O        0.13480    0.59980    0.63500    1.000
    O77      O        0.23410    0.70870    0.63940    1.000
    C14      C        0.04160    0.98080    0.49780    1.000
    H7       H        0.08350    0.02530    0.50090    1.000
    Dy8      Dy       0.61973    0.31289    0.40730    1.000
    S15      S        0.60489    0.28059    0.16356    1.000
    S16      S        0.68876    0.14873    0.57290    1.000
    O78      O        0.55680    0.43750    0.39930    1.000
    O79      O        0.60110    0.35900    0.22360    1.000
    O80      O        0.58370    0.35490    0.57280    1.000
    O81      O        0.52160    0.26630    0.10750    1.000
    O82      O        0.63580    0.18890    0.49020    1.000
    O83      O        0.62070    0.21810    0.24820    1.000
    O84      O        0.57280    0.45770    0.68280    1.000
    O85      O        0.67350    0.28230    0.08930    1.000
    O86      O        0.76010    0.10630    0.52740    1.000
    C15      C        0.56500    0.42690    0.59230    1.000
    O87      O        0.63480    0.09980    0.63500    1.000
    O88      O        0.73410    0.20870    0.63940    1.000
    C16      C        0.54160    0.48080    0.49780    1.000
    H8       H        0.58350    0.52530    0.50090    1.000
    Fe1      Fe       0.00000    0.04831    0.75000    1.000
    Fe2      Fe       0.50000    0.54831    0.75000    1.000
    Fe3      Fe       0.00000    0.95169    0.25000    1.000
    Fe4      Fe       0.50000    0.45169    0.25000    1.000
