# CIF file generated by openbabel 3.1.0, see https://openbabel.org
data_I
_chemical_name_common 'image0'
_cell_length_a 27.25
_cell_length_b 16.002
_cell_length_c 10.292
_cell_angle_alpha 90
_cell_angle_beta 90
_cell_angle_gamma 90
_space_group_name_H-M_alt 'P 1'
_space_group_name_Hall 'P 1'
loop_
    _symmetry_equiv_pos_as_xyz
    x,y,z
loop_
    _atom_site_label
    _atom_site_type_symbol
    _atom_site_fract_x
    _atom_site_fract_y
    _atom_site_fract_z
    _atom_site_occupancy
    Zn1      Zn       0.19922    0.05828    0.55555    1.000
    O1       O        0.13113    0.02240    0.56140    1.000
    N1       N        0.20926    0.18077    0.56070    1.000
    N2       N        0.23929    0.01082    0.41170    1.000
    N3       N        0.22326    0.01954    0.72920    1.000
    C1       C        0.10205    0.04460    0.46880    1.000
    N4       N        0.24845    0.20970    0.62960    1.000
    C2       C        0.23679    0.01416    0.28200    1.000
    N5       N        0.28282    0.97110    0.43680    1.000
    C3       C        0.04951    0.02070    0.48440    1.000
    O2       O        0.11631    0.08448    0.37190    1.000
    N6       N        0.20121    0.05170    0.21640    1.000
    N7       N        0.30435    0.95380    0.32960    1.000
    C4       C        0.01553    0.03970    0.38730    1.000
    C5       C        0.03285    0.98230    0.59650    1.000
    H1       H        0.13460    0.20130    0.41350    1.000
    H2       H        0.17780    0.08040    0.25910    1.000
    H3       H        0.20130    0.05070    0.12900    1.000
    H4       H        0.02620    0.06680    0.30500    1.000
    N8       N        0.05820    0.97150    0.68900    1.000
    H5       H        0.04590    0.95120    0.75890    1.000
    H6       H        0.08890    0.98390    0.68530    1.000
    H7       H        0.05430    0.97630    0.65830    1.000
    N9       N        0.02640    0.07980    0.27510    1.000
    H8       H        0.00360    0.09000    0.21940    1.000
    H9       H        0.05610    0.09520    0.25950    1.000
    Zn2      Zn       0.30078    0.94172    0.05555    1.000
    O3       O        0.36887    0.97760    0.06140    1.000
    N10      N        0.29074    0.81923    0.06070    1.000
    N11      N        0.26071    0.98918    0.91170    1.000
    N12      N        0.27674    0.98046    0.22920    1.000
    C6       C        0.39795    0.95540    0.96880    1.000
    N13      N        0.25155    0.79030    0.12960    1.000
    C7       C        0.26321    0.98584    0.78200    1.000
    N14      N        0.21718    0.02890    0.93680    1.000
    C8       C        0.45049    0.97930    0.98440    1.000
    O4       O        0.38369    0.91552    0.87190    1.000
    N15      N        0.29879    0.94830    0.71640    1.000
    N16      N        0.19565    0.04620    0.82960    1.000
    C9       C        0.48447    0.96030    0.88730    1.000
    C10      C        0.46715    0.01770    0.09650    1.000
    H10      H        0.36540    0.79870    0.91350    1.000
    H11      H        0.32220    0.91960    0.75910    1.000
    H12      H        0.29870    0.94930    0.62900    1.000
    H13      H        0.47380    0.93320    0.80500    1.000
    N17      N        0.44180    0.02850    0.18900    1.000
    H14      H        0.45410    0.04880    0.25890    1.000
    H15      H        0.41110    0.01610    0.18530    1.000
    H16      H        0.44570    0.02370    0.15830    1.000
    N18      N        0.47360    0.92020    0.77510    1.000
    H17      H        0.49640    0.91000    0.71940    1.000
    H18      H        0.44390    0.90480    0.75950    1.000
    Zn3      Zn       0.80078    0.55828    0.44445    1.000
    O5       O        0.86887    0.52240    0.43860    1.000
    N19      N        0.79074    0.68077    0.43930    1.000
    N20      N        0.76071    0.51082    0.58830    1.000
    N21      N        0.77674    0.51954    0.27080    1.000
    C11      C        0.89795    0.54460    0.53120    1.000
    N22      N        0.75155    0.70970    0.37040    1.000
    C12      C        0.76321    0.51416    0.71800    1.000
    N23      N        0.71718    0.47110    0.56320    1.000
    C13      C        0.95049    0.52070    0.51560    1.000
    O6       O        0.88369    0.58448    0.62810    1.000
    N24      N        0.79879    0.55170    0.78360    1.000
    N25      N        0.69565    0.45380    0.67040    1.000
    C14      C        0.98447    0.53970    0.61270    1.000
    C15      C        0.96715    0.48230    0.40350    1.000
    H19      H        0.86540    0.70130    0.58650    1.000
    H20      H        0.82220    0.58040    0.74090    1.000
    H21      H        0.79870    0.55070    0.87100    1.000
    H22      H        0.97380    0.56680    0.69500    1.000
    N26      N        0.94180    0.47150    0.31100    1.000
    H23      H        0.95410    0.45120    0.24110    1.000
    H24      H        0.91110    0.48390    0.31470    1.000
    H25      H        0.94570    0.47630    0.34170    1.000
    N27      N        0.97360    0.57980    0.72490    1.000
    H26      H        0.99640    0.59000    0.78060    1.000
    H27      H        0.94390    0.59520    0.74050    1.000
    Zn4      Zn       0.69922    0.44172    0.94445    1.000
    O7       O        0.63113    0.47760    0.93860    1.000
    N28      N        0.70926    0.31923    0.93930    1.000
    N29      N        0.73929    0.48918    0.08830    1.000
    N30      N        0.72326    0.48046    0.77080    1.000
    C16      C        0.60205    0.45540    0.03120    1.000
    N31      N        0.74845    0.29030    0.87040    1.000
    C17      C        0.73679    0.48584    0.21800    1.000
    N32      N        0.78282    0.52890    0.06320    1.000
    C18      C        0.54951    0.47930    0.01560    1.000
    O8       O        0.61631    0.41552    0.12810    1.000
    N33      N        0.70121    0.44830    0.28360    1.000
    N34      N        0.80435    0.54620    0.17040    1.000
    C19      C        0.51553    0.46030    0.11270    1.000
    C20      C        0.53285    0.51770    0.90350    1.000
    H28      H        0.63460    0.29870    0.08650    1.000
    H29      H        0.67780    0.41960    0.24090    1.000
    H30      H        0.70130    0.44930    0.37100    1.000
    H31      H        0.52620    0.43320    0.19500    1.000
    N35      N        0.55820    0.52850    0.81100    1.000
    H32      H        0.54590    0.54880    0.74110    1.000
    H33      H        0.58890    0.51610    0.81470    1.000
    H34      H        0.55430    0.52370    0.84170    1.000
    N36      N        0.52640    0.42020    0.22490    1.000
    H35      H        0.50360    0.41000    0.28060    1.000
    H36      H        0.55610    0.40480    0.24050    1.000
    Zn5      Zn       0.80078    0.94172    0.44445    1.000
    O9       O        0.86887    0.97760    0.43860    1.000
    N37      N        0.79074    0.81923    0.43930    1.000
    N38      N        0.76071    0.98918    0.58830    1.000
    N39      N        0.77674    0.98046    0.27080    1.000
    C21      C        0.89795    0.95540    0.53120    1.000
    N40      N        0.75155    0.79030    0.37040    1.000
    C22      C        0.76321    0.98584    0.71800    1.000
    N41      N        0.71718    0.02890    0.56320    1.000
    C23      C        0.95049    0.97930    0.51560    1.000
    O10      O        0.88369    0.91552    0.62810    1.000
    N42      N        0.79879    0.94830    0.78360    1.000
    N43      N        0.69565    0.04620    0.67040    1.000
    C24      C        0.98447    0.96030    0.61270    1.000
    C25      C        0.96715    0.01770    0.40350    1.000
    H37      H        0.86540    0.79870    0.58650    1.000
    H38      H        0.82220    0.91960    0.74090    1.000
    H39      H        0.79870    0.94930    0.87100    1.000
    H40      H        0.97380    0.93320    0.69500    1.000
    N44      N        0.94180    0.02850    0.31100    1.000
    H41      H        0.95410    0.04880    0.24110    1.000
    H42      H        0.91110    0.01610    0.31470    1.000
    H43      H        0.94570    0.02370    0.34170    1.000
    N45      N        0.97360    0.92020    0.72490    1.000
    H44      H        0.99640    0.91000    0.78060    1.000
    H45      H        0.94390    0.90480    0.74050    1.000
    Zn6      Zn       0.69922    0.05828    0.94445    1.000
    O11      O        0.63113    0.02240    0.93860    1.000
    N46      N        0.70926    0.18077    0.93930    1.000
    N47      N        0.73929    0.01082    0.08830    1.000
    N48      N        0.72326    0.01954    0.77080    1.000
    C26      C        0.60205    0.04460    0.03120    1.000
    N49      N        0.74845    0.20970    0.87040    1.000
    C27      C        0.73679    0.01416    0.21800    1.000
    N50      N        0.78282    0.97110    0.06320    1.000
    C28      C        0.54951    0.02070    0.01560    1.000
    O12      O        0.61631    0.08448    0.12810    1.000
    N51      N        0.70121    0.05170    0.28360    1.000
    N52      N        0.80435    0.95380    0.17040    1.000
    C29      C        0.51553    0.03970    0.11270    1.000
    C30      C        0.53285    0.98230    0.90350    1.000
    H46      H        0.63460    0.20130    0.08650    1.000
    H47      H        0.67780    0.08040    0.24090    1.000
    H48      H        0.70130    0.05070    0.37100    1.000
    H49      H        0.52620    0.06680    0.19500    1.000
    N53      N        0.55820    0.97150    0.81100    1.000
    H50      H        0.54590    0.95120    0.74110    1.000
    H51      H        0.58890    0.98390    0.81470    1.000
    H52      H        0.55430    0.97630    0.84170    1.000
    N54      N        0.52640    0.07980    0.22490    1.000
    H53      H        0.50360    0.09000    0.28060    1.000
    H54      H        0.55610    0.09520    0.24050    1.000
    Zn7      Zn       0.19922    0.44172    0.55555    1.000
    O13      O        0.13113    0.47760    0.56140    1.000
    N55      N        0.20926    0.31923    0.56070    1.000
    N56      N        0.23929    0.48918    0.41170    1.000
    N57      N        0.22326    0.48046    0.72920    1.000
    C31      C        0.10205    0.45540    0.46880    1.000
    N58      N        0.24845    0.29030    0.62960    1.000
    C32      C        0.23679    0.48584    0.28200    1.000
    N59      N        0.28282    0.52890    0.43680    1.000
    C33      C        0.04951    0.47930    0.48440    1.000
    O14      O        0.11631    0.41552    0.37190    1.000
    N60      N        0.20121    0.44830    0.21640    1.000
    N61      N        0.30435    0.54620    0.32960    1.000
    C34      C        0.01553    0.46030    0.38730    1.000
    C35      C        0.03285    0.51770    0.59650    1.000
    H55      H        0.13460    0.29870    0.41350    1.000
    H56      H        0.17780    0.41960    0.25910    1.000
    H57      H        0.20130    0.44930    0.12900    1.000
    H58      H        0.02620    0.43320    0.30500    1.000
    N62      N        0.05820    0.52850    0.68900    1.000
    H59      H        0.04590    0.54880    0.75890    1.000
    H60      H        0.08890    0.51610    0.68530    1.000
    H61      H        0.05430    0.52370    0.65830    1.000
    N63      N        0.02640    0.42020    0.27510    1.000
    H62      H        0.00360    0.41000    0.21940    1.000
    H63      H        0.05610    0.40480    0.25950    1.000
    Zn8      Zn       0.30078    0.55828    0.05555    1.000
    O15      O        0.36887    0.52240    0.06140    1.000
    N64      N        0.29074    0.68077    0.06070    1.000
    N65      N        0.26071    0.51082    0.91170    1.000
    N66      N        0.27674    0.51954    0.22920    1.000
    C36      C        0.39795    0.54460    0.96880    1.000
    N67      N        0.25155    0.70970    0.12960    1.000
    C37      C        0.26321    0.51416    0.78200    1.000
    N68      N        0.21718    0.47110    0.93680    1.000
    C38      C        0.45049    0.52070    0.98440    1.000
    O16      O        0.38369    0.58448    0.87190    1.000
    N69      N        0.29879    0.55170    0.71640    1.000
    N70      N        0.19565    0.45380    0.82960    1.000
    C39      C        0.48447    0.53970    0.88730    1.000
    C40      C        0.46715    0.48230    0.09650    1.000
    H64      H        0.36540    0.70130    0.91350    1.000
    H65      H        0.32220    0.58040    0.75910    1.000
    H66      H        0.29870    0.55070    0.62900    1.000
    H67      H        0.47380    0.56680    0.80500    1.000
    N71      N        0.44180    0.47150    0.18900    1.000
    H68      H        0.45410    0.45120    0.25890    1.000
    H69      H        0.41110    0.48390    0.18530    1.000
    H70      H        0.44570    0.47630    0.15830    1.000
    N72      N        0.47360    0.57980    0.77510    1.000
    H71      H        0.49640    0.59000    0.71940    1.000
    H72      H        0.44390    0.59520    0.75950    1.000
    C41      C        0.18699    0.25000    0.51670    1.000
    N73      N        0.14840    0.25000    0.43770    1.000
    C42      C        0.31301    0.75000    0.01670    1.000
    N74      N        0.35160    0.75000    0.93770    1.000
    C43      C        0.81301    0.75000    0.48330    1.000
    N75      N        0.85160    0.75000    0.56230    1.000
    C44      C        0.68699    0.25000    0.98330    1.000
    N76      N        0.64840    0.25000    0.06230    1.000
