# CIF file generated by openbabel 3.1.0, see https://openbabel.org
data_I
_chemical_name_common 'image0'
_cell_length_a 9.8155
_cell_length_b 10.1884
_cell_length_c 12.871
_cell_angle_alpha 69.002
_cell_angle_beta 69.676
_cell_angle_gamma 63.281
_space_group_name_H-M_alt 'P 1'
_space_group_name_Hall 'P 1'
loop_
    _symmetry_equiv_pos_as_xyz
    x,y,z
loop_
    _atom_site_label
    _atom_site_type_symbol
    _atom_site_fract_x
    _atom_site_fract_y
    _atom_site_fract_z
    _atom_site_occupancy
    Cd1      Cd       0.83929    0.12656    0.41740    1.000
    C1       C        0.91270    0.31140    0.21800    1.000
    C2       C        0.95810    0.40640    0.10710    1.000
    C3       C        0.05000    0.34570    0.01350    1.000
    H1       H        0.08400    0.24210    0.02140    1.000
    C4       C        0.90820    0.56270    0.09160    1.000
    H2       H        0.84580    0.60610    0.15300    1.000
    C5       C        0.07450    0.18080    0.53680    1.000
    C6       C        0.03450    0.34690    0.51820    1.000
    C7       C        0.98560    0.44750    0.42300    1.000
    H3       H        0.97690    0.41220    0.36910    1.000
    C8       C        0.05160    0.39930    0.59580    1.000
    H4       H        0.08780    0.33210    0.66040    1.000
    C9       C        0.59060    0.30870    0.60680    1.000
    H5       H        0.57170    0.39920    0.55100    1.000
    C10      C        0.51800    0.29730    0.71610    1.000
    H6       H        0.44280    0.37500    0.75040    1.000
    C11      C        0.68610    0.07860    0.68560    1.000
    H7       H        0.74790    0.97590    0.69790    1.000
    C12      C        0.80660    0.11510    0.00310    1.000
    H8       H        0.88220    0.15740    0.97880    1.000
    C13      C        0.73260    0.12430    0.92680    1.000
    H9       H        0.75880    0.17280    0.85050    1.000
    C14      C        0.61750    0.06170    0.96160    1.000
    C15      C        0.53590    0.07130    0.88670    1.000
    C16      C        0.42230    0.01060    0.92050    1.000
    C17      C        0.33920    0.01940    0.84550    1.000
    H10      H        0.36050    0.06930    0.76900    1.000
    C18      C        0.23160    0.95760    0.88280    1.000
    H11      H        0.18080    0.96310    0.83140    1.000
    N1       N        0.57820    0.14480    0.76780    1.000
    N2       N        0.69470    0.17410    0.58650    1.000
    O1       O        0.80180    0.37070    0.29380    1.000
    O2       O        0.98340    0.17040    0.23390    1.000
    O3       O        0.04910    0.13360    0.47090    1.000
    O4       O        0.14510    0.09090    0.61190    1.000
    Cd2      Cd       0.16071    0.87344    0.58260    1.000
    C19      C        0.08730    0.68860    0.78200    1.000
    C20      C        0.04190    0.59360    0.89290    1.000
    C21      C        0.95000    0.65430    0.98650    1.000
    H12      H        0.91600    0.75790    0.97860    1.000
    C22      C        0.09180    0.43730    0.90840    1.000
    H13      H        0.15420    0.39390    0.84700    1.000
    C23      C        0.92550    0.81920    0.46320    1.000
    C24      C        0.96550    0.65310    0.48180    1.000
    C25      C        0.01440    0.55250    0.57700    1.000
    H14      H        0.02310    0.58780    0.63090    1.000
    C26      C        0.94840    0.60070    0.40420    1.000
    H15      H        0.91220    0.66790    0.33960    1.000
    C27      C        0.40940    0.69130    0.39320    1.000
    H16      H        0.42830    0.60080    0.44900    1.000
    C28      C        0.48200    0.70270    0.28390    1.000
    H17      H        0.55720    0.62500    0.24960    1.000
    C29      C        0.31390    0.92140    0.31440    1.000
    H18      H        0.25210    0.02410    0.30210    1.000
    C30      C        0.19340    0.88490    0.99690    1.000
    H19      H        0.11780    0.84260    0.02120    1.000
    C31      C        0.26740    0.87570    0.07320    1.000
    H20      H        0.24120    0.82720    0.14950    1.000
    C32      C        0.38250    0.93830    0.03840    1.000
    C33      C        0.46410    0.92870    0.11330    1.000
    C34      C        0.57770    0.98940    0.07950    1.000
    C35      C        0.66080    0.98060    0.15450    1.000
    H21      H        0.63950    0.93070    0.23100    1.000
    C36      C        0.76840    0.04240    0.11720    1.000
    H22      H        0.81920    0.03690    0.16860    1.000
    N3       N        0.42180    0.85520    0.23220    1.000
    N4       N        0.30530    0.82590    0.41350    1.000
    O5       O        0.19820    0.62930    0.70620    1.000
    O6       O        0.01660    0.82960    0.76610    1.000
    O7       O        0.95090    0.86640    0.52910    1.000
    O8       O        0.85490    0.90910    0.38810    1.000
