# CIF file generated by openbabel 3.1.0, see https://openbabel.org
data_I
_chemical_name_common 'BAHGUN03_clean'
_cell_length_a 4.981
_cell_length_b 11.019
_cell_length_c 12.7785
_cell_angle_alpha 91.6643
_cell_angle_beta 101.239
_cell_angle_gamma 81.4299
_space_group_name_H-M_alt 'P 1'
_space_group_name_Hall 'P 1'
loop_
    _symmetry_equiv_pos_as_xyz
    x,y,z
loop_
    _atom_site_label
    _atom_site_type_symbol
    _atom_site_fract_x
    _atom_site_fract_y
    _atom_site_fract_z
    _atom_site_occupancy
    Cu1      Cu       0.82607    0.30450    0.22678    1.000
    Cu2      Cu       0.59929    0.80450    0.77322    1.000
    H1       H        0.59380    0.51110    0.87200    1.000
    H2       H        0.83090    0.37430    0.00080    1.000
    H3       H        0.33390    0.49450    0.19420    1.000
    H4       H        0.06980    0.62750    0.06700    1.000
    H5       H        0.01600    0.96010    0.48740    1.000
    H6       H        0.79790    0.06960    0.33880    1.000
    H7       H        0.32670    0.30300    0.39040    1.000
    H8       H        0.55540    0.20200    0.54480    1.000
    H9       H        0.72180    0.01110    0.12800    1.000
    H10      H        0.83010    0.87430    0.99920    1.000
    H11      H        0.13970    0.99450    0.80580    1.000
    H12      H        0.00280    0.12750    0.93300    1.000
    H13      H        0.52860    0.46010    0.51260    1.000
    H14      H        0.45910    0.56960    0.66120    1.000
    H15      H        0.93630    0.80300    0.60960    1.000
    H16      H        0.01060    0.70200    0.45520    1.000
    C1       C        0.13707    0.67330    0.86794    1.000
    C2       C        0.30372    0.58660    0.95424    1.000
    C3       C        0.53532    0.50870    0.93664    1.000
    C4       C        0.67896    0.42750    0.01492    1.000
    C5       C        0.38541    0.49710    0.12822    1.000
    C6       C        0.22705    0.57840    0.05250    1.000
    C7       C        0.46231    0.00020    0.63422    1.000
    C8       C        0.30818    0.06900    0.53436    1.000
    C9       C        0.08127    0.03020    0.47014    1.000
    C10      C        0.95315    0.09620    0.38050    1.000
    C11      C        0.26278    0.23400    0.41096    1.000
    C12      C        0.40190    0.17360    0.50360    1.000
    C13      C        0.26913    0.17330    0.13206    1.000
    C14      C        0.34948    0.08660    0.04576    1.000
    C15      C        0.59868    0.00870    0.06336    1.000
    C16      C        0.66404    0.92750    0.98508    1.000
    C17      C        0.25719    0.99710    0.87178    1.000
    C18      C        0.17455    0.07840    0.94750    1.000
    C19      C        0.82809    0.50020    0.36578    1.000
    C20      C        0.77382    0.56900    0.46564    1.000
    C21      C        0.61113    0.53020    0.52986    1.000
    C22      C        0.57265    0.59620    0.61950    1.000
    C23      C        0.85182    0.73400    0.58904    1.000
    C24      C        0.89830    0.67360    0.49640    1.000
    N1       N        0.60930    0.42190    0.11120    1.000
    N2       N        0.03761    0.19660    0.34922    1.000
    N3       N        0.49810    0.92190    0.88880    1.000
    N4       N        0.68839    0.69660    0.65078    1.000
    O1       O        0.88929    0.71010    0.87838    1.000
    O2       O        0.24754    0.70120    0.79508    1.000
    O3       O        0.35601    0.90970    0.65822    1.000
    O4       O        0.68216    0.03090    0.68252    1.000
    O5       O        0.01091    0.21010    0.12162    1.000
    O6       O        0.45246    0.20120    0.20492    1.000
    O7       O        0.69779    0.40970    0.34178    1.000
    O8       O        0.99964    0.53090    0.31748    1.000
