# CIF file generated by openbabel 3.1.0, see https://openbabel.org
data_I
_chemical_name_common 'image0'
_cell_length_a 9.154
_cell_length_b 9.239
_cell_length_c 9.345
_cell_angle_alpha 78.231
_cell_angle_beta 87.485
_cell_angle_gamma 87.179
_space_group_name_H-M_alt 'P 1'
_space_group_name_Hall 'P 1'
loop_
    _symmetry_equiv_pos_as_xyz
    x,y,z
loop_
    _atom_site_label
    _atom_site_type_symbol
    _atom_site_fract_x
    _atom_site_fract_y
    _atom_site_fract_z
    _atom_site_occupancy
    P1       P        0.61700    0.86030    0.67860    1.000
    P2       P        0.81260    0.11110    0.10540    1.000
    P3       P        0.64870    0.66940    0.13810    1.000
    Al1      Al       0.63070    0.89680    0.33970    1.000
    Al2      Al       0.83710    0.86730    0.92680    1.000
    Al3      Al       0.43850    0.63160    0.90800    1.000
    F1       F        0.60530    0.50230    0.91950    1.000
    O1       O        0.53600    0.73480    0.02610    1.000
    O2       O        0.78750    0.03510    0.97770    1.000
    O3       O        0.64840    0.50220    0.18700    1.000
    O4       O        0.73100    0.25800    0.08710    1.000
    O5       O        0.76800    0.00940    0.24970    1.000
    O6       O        0.51450    0.73560    0.73390    1.000
    O7       O        0.97680    0.13530    0.11200    1.000
    O8       O        0.80150    0.71860    0.07090    1.000
    O9       O        0.75260    0.85090    0.77080    1.000
    O10      O        0.67400    0.85100    0.52340    1.000
    O11      O        0.62500    0.73530    0.27700    1.000
    O12      O        0.53920    0.01040    0.67520    1.000
    P4       P        0.38300    0.13970    0.32140    1.000
    P5       P        0.18740    0.88890    0.89460    1.000
    P6       P        0.35130    0.33060    0.86190    1.000
    Al4      Al       0.36930    0.10320    0.66030    1.000
    Al5      Al       0.16290    0.13270    0.07320    1.000
    Al6      Al       0.56150    0.36840    0.09200    1.000
    F2       F        0.39470    0.49770    0.08050    1.000
    O13      O        0.46400    0.26520    0.97390    1.000
    O14      O        0.21250    0.96490    0.02230    1.000
    O15      O        0.35160    0.49780    0.81300    1.000
    O16      O        0.26900    0.74200    0.91290    1.000
    O17      O        0.23200    0.99060    0.75030    1.000
    O18      O        0.48550    0.26440    0.26610    1.000
    O19      O        0.02320    0.86470    0.88800    1.000
    O20      O        0.19850    0.28140    0.92910    1.000
    O21      O        0.24740    0.14910    0.22920    1.000
    O22      O        0.32600    0.14900    0.47660    1.000
    O23      O        0.37500    0.26470    0.72300    1.000
    O24      O        0.46080    0.98960    0.32480    1.000
