# CIF file generated by openbabel 3.1.0, see https://openbabel.org
data_I
_chemical_name_common 'image0'
_cell_length_a 15.4
_cell_length_b 6.7287
_cell_length_c 14.252
_cell_angle_alpha 90
_cell_angle_beta 90
_cell_angle_gamma 90
_space_group_name_H-M_alt 'P 1'
_space_group_name_Hall 'P 1'
loop_
    _symmetry_equiv_pos_as_xyz
    x,y,z
loop_
    _atom_site_label
    _atom_site_type_symbol
    _atom_site_fract_x
    _atom_site_fract_y
    _atom_site_fract_z
    _atom_site_occupancy
    O1       O        0.71000    0.40830    0.25100    1.000
    O2       O        0.64810    0.41370    0.86110    1.000
    O3       O        0.79000    0.59170    0.75100    1.000
    O4       O        0.85190    0.58630    0.36110    1.000
    O5       O        0.29000    0.90830    0.74900    1.000
    O6       O        0.35190    0.91370    0.13890    1.000
    O7       O        0.21000    0.09170    0.24900    1.000
    O8       O        0.14810    0.08630    0.63890    1.000
    O9       O        0.29000    0.59170    0.74900    1.000
    O10      O        0.35190    0.58630    0.13890    1.000
    O11      O        0.21000    0.40830    0.24900    1.000
    O12      O        0.14810    0.41370    0.63890    1.000
    O13      O        0.71000    0.09170    0.25100    1.000
    O14      O        0.64810    0.08630    0.86110    1.000
    O15      O        0.79000    0.90830    0.75100    1.000
    O16      O        0.85190    0.91370    0.36110    1.000
    Eu1      Eu       0.80335    0.25000    0.37641    1.000
    K1       K        0.73280    0.25000    0.69050    1.000
    O17      O        0.34920    0.25000    0.96350    1.000
    O18      O        0.45080    0.25000    0.85010    1.000
    O19      O        0.39520    0.25000    0.26150    1.000
    O20      O        0.52400    0.25000    0.33310    1.000
    N1       N        0.46660    0.25000    0.09480    1.000
    N2       N        0.64210    0.25000    0.06350    1.000
    C1       C        0.49670    0.25000    0.00740    1.000
    C2       C        0.52010    0.25000    0.16740    1.000
    C3       C        0.60960    0.25000    0.15080    1.000
    C4       C        0.58670    0.25000    0.99240    1.000
    C5       C        0.42770    0.25000    0.93170    1.000
    C6       C        0.47730    0.25000    0.26230    1.000
    C7       C        0.67670    0.25000    0.22720    1.000
    C8       C        0.62840    0.25000    0.89590    1.000
    Eu2      Eu       0.69665    0.75000    0.87641    1.000
    K2       K        0.76720    0.75000    0.19050    1.000
    O21      O        0.15080    0.75000    0.46350    1.000
    O22      O        0.04920    0.75000    0.35010    1.000
    O23      O        0.10480    0.75000    0.76150    1.000
    O24      O        0.97600    0.75000    0.83310    1.000
    N3       N        0.03340    0.75000    0.59480    1.000
    N4       N        0.85790    0.75000    0.56350    1.000
    C9       C        0.00330    0.75000    0.50740    1.000
    C10      C        0.97990    0.75000    0.66740    1.000
    C11      C        0.89040    0.75000    0.65080    1.000
    C12      C        0.91330    0.75000    0.49240    1.000
    C13      C        0.07230    0.75000    0.43170    1.000
    C14      C        0.02270    0.75000    0.76230    1.000
    C15      C        0.82330    0.75000    0.72720    1.000
    C16      C        0.87160    0.75000    0.39590    1.000
    Eu3      Eu       0.19665    0.75000    0.62359    1.000
    K3       K        0.26720    0.75000    0.30950    1.000
    O25      O        0.65080    0.75000    0.03650    1.000
    O26      O        0.54920    0.75000    0.14990    1.000
    O27      O        0.60480    0.75000    0.73850    1.000
    O28      O        0.47600    0.75000    0.66690    1.000
    N5       N        0.53340    0.75000    0.90520    1.000
    N6       N        0.35790    0.75000    0.93650    1.000
    C17      C        0.50330    0.75000    0.99260    1.000
    C18      C        0.47990    0.75000    0.83260    1.000
    C19      C        0.39040    0.75000    0.84920    1.000
    C20      C        0.41330    0.75000    0.00760    1.000
    C21      C        0.57230    0.75000    0.06830    1.000
    C22      C        0.52270    0.75000    0.73770    1.000
    C23      C        0.32330    0.75000    0.77280    1.000
    C24      C        0.37160    0.75000    0.10410    1.000
    Eu4      Eu       0.30335    0.25000    0.12359    1.000
    K4       K        0.23280    0.25000    0.80950    1.000
    O29      O        0.84920    0.25000    0.53650    1.000
    O30      O        0.95080    0.25000    0.64990    1.000
    O31      O        0.89520    0.25000    0.23850    1.000
    O32      O        0.02400    0.25000    0.16690    1.000
    N7       N        0.96660    0.25000    0.40520    1.000
    N8       N        0.14210    0.25000    0.43650    1.000
    C25      C        0.99670    0.25000    0.49260    1.000
    C26      C        0.02010    0.25000    0.33260    1.000
    C27      C        0.10960    0.25000    0.34920    1.000
    C28      C        0.08670    0.25000    0.50760    1.000
    C29      C        0.92770    0.25000    0.56830    1.000
    C30      C        0.97730    0.25000    0.23770    1.000
    C31      C        0.17670    0.25000    0.27280    1.000
    C32      C        0.12840    0.25000    0.60410    1.000
