# CIF file generated by openbabel 3.1.0, see https://openbabel.org
data_I
_chemical_name_common 'image0'
_cell_length_a 13.882
_cell_length_b 13.365
_cell_length_c 14.209
_cell_angle_alpha 90
_cell_angle_beta 112.046
_cell_angle_gamma 90
_space_group_name_H-M_alt 'P 1'
_space_group_name_Hall 'P 1'
loop_
    _symmetry_equiv_pos_as_xyz
    x,y,z
loop_
    _atom_site_label
    _atom_site_type_symbol
    _atom_site_fract_x
    _atom_site_fract_y
    _atom_site_fract_z
    _atom_site_occupancy
    C1       C        0.22490    0.69530    0.88480    1.000
    H1       H        0.27800    0.74170    0.91240    1.000
    C2       C        0.12140    0.72610    0.84680    1.000
    H2       H        0.10480    0.79360    0.84610    1.000
    C3       C        0.04470    0.65600    0.81060    1.000
    C4       C        0.06660    0.55420    0.80860    1.000
    H3       H        0.01340    0.50730    0.78470    1.000
    C5       C        0.16950    0.52520    0.84310    1.000
    H4       H        0.18590    0.45800    0.84060    1.000
    C6       C        0.93440    0.69530    0.77460    1.000
    C7       C        0.75820    0.65550    0.76170    1.000
    C8       C        0.70750    0.60670    0.81470    1.000
    H5       H        0.74340    0.56030    0.86420    1.000
    C9       C        0.60410    0.62520    0.79550    1.000
    C10      C        0.55130    0.69690    0.72220    1.000
    H6       H        0.48170    0.71000    0.70920    1.000
    C11      C        0.60040    0.74810    0.66920    1.000
    C12      C        0.70610    0.72790    0.68800    1.000
    H7       H        0.74040    0.76150    0.65240    1.000
    C13      C        0.55620    0.57630    0.86270    1.000
    C14      C        0.55190    0.83300    0.59790    1.000
    N1       N        0.24810    0.59410    0.88120    1.000
    N2       N        0.86290    0.63120    0.78210    1.000
    H8       H        0.88250    0.57090    0.80070    1.000
    O1       O        0.91800    0.78330    0.74750    1.000
    O2       O        0.60930    0.51330    0.92390    1.000
    O3       O        0.46560    0.60280    0.85080    1.000
    O4       O        0.45930    0.82350    0.53850    1.000
    O5       O        0.60590    0.90830    0.60230    1.000
    Cu1      Cu       0.59967    0.44686    0.05103    1.000
    C15      C        0.77510    0.19530    0.61520    1.000
    H9       H        0.72200    0.24170    0.58760    1.000
    C16      C        0.87860    0.22610    0.65320    1.000
    H10      H        0.89520    0.29360    0.65390    1.000
    C17      C        0.95530    0.15600    0.68940    1.000
    C18      C        0.93340    0.05420    0.69140    1.000
    H11      H        0.98660    0.00730    0.71530    1.000
    C19      C        0.83050    0.02520    0.65690    1.000
    H12      H        0.81410    0.95800    0.65940    1.000
    C20      C        0.06560    0.19530    0.72540    1.000
    C21      C        0.24180    0.15550    0.73830    1.000
    C22      C        0.29250    0.10670    0.68530    1.000
    H13      H        0.25660    0.06030    0.63580    1.000
    C23      C        0.39590    0.12520    0.70450    1.000
    C24      C        0.44870    0.19690    0.77780    1.000
    H14      H        0.51830    0.21000    0.79080    1.000
    C25      C        0.39960    0.24810    0.83080    1.000
    C26      C        0.29390    0.22790    0.81200    1.000
    H15      H        0.25960    0.26150    0.84760    1.000
    C27      C        0.44380    0.07630    0.63730    1.000
    C28      C        0.44810    0.33300    0.90210    1.000
    N3       N        0.75190    0.09410    0.61880    1.000
    N4       N        0.13710    0.13120    0.71790    1.000
    H16      H        0.11750    0.07090    0.69930    1.000
    O6       O        0.08200    0.28330    0.75250    1.000
    O7       O        0.39070    0.01330    0.57610    1.000
    O8       O        0.53440    0.10280    0.64920    1.000
    O9       O        0.54070    0.32350    0.96150    1.000
    O10      O        0.39410    0.40830    0.89770    1.000
    Cu2      Cu       0.40033    0.94686    0.44897    1.000
    C29      C        0.77510    0.30470    0.11520    1.000
    H17      H        0.72200    0.25830    0.08760    1.000
    C30      C        0.87860    0.27390    0.15320    1.000
    H18      H        0.89520    0.20640    0.15390    1.000
    C31      C        0.95530    0.34400    0.18940    1.000
    C32      C        0.93340    0.44580    0.19140    1.000
    H19      H        0.98660    0.49270    0.21530    1.000
    C33      C        0.83050    0.47480    0.15690    1.000
    H20      H        0.81410    0.54200    0.15940    1.000
    C34      C        0.06560    0.30470    0.22540    1.000
    C35      C        0.24180    0.34450    0.23830    1.000
    C36      C        0.29250    0.39330    0.18530    1.000
    H21      H        0.25660    0.43970    0.13580    1.000
    C37      C        0.39590    0.37480    0.20450    1.000
    C38      C        0.44870    0.30310    0.27780    1.000
    H22      H        0.51830    0.29000    0.29080    1.000
    C39      C        0.39960    0.25190    0.33080    1.000
    C40      C        0.29390    0.27210    0.31200    1.000
    H23      H        0.25960    0.23850    0.34760    1.000
    C41      C        0.44380    0.42370    0.13730    1.000
    C42      C        0.44810    0.16700    0.40210    1.000
    N5       N        0.75190    0.40590    0.11880    1.000
    N6       N        0.13710    0.36880    0.21790    1.000
    H24      H        0.11750    0.42910    0.19930    1.000
    O11      O        0.08200    0.21670    0.25250    1.000
    O12      O        0.39070    0.48670    0.07610    1.000
    O13      O        0.53440    0.39720    0.14920    1.000
    O14      O        0.54070    0.17650    0.46150    1.000
    O15      O        0.39410    0.09170    0.39770    1.000
    Cu3      Cu       0.40033    0.55314    0.94897    1.000
    C43      C        0.22490    0.80470    0.38480    1.000
    H25      H        0.27800    0.75830    0.41240    1.000
    C44      C        0.12140    0.77390    0.34680    1.000
    H26      H        0.10480    0.70640    0.34610    1.000
    C45      C        0.04470    0.84400    0.31060    1.000
    C46      C        0.06660    0.94580    0.30860    1.000
    H27      H        0.01340    0.99270    0.28470    1.000
    C47      C        0.16950    0.97480    0.34310    1.000
    H28      H        0.18590    0.04200    0.34060    1.000
    C48      C        0.93440    0.80470    0.27460    1.000
    C49      C        0.75820    0.84450    0.26170    1.000
    C50      C        0.70750    0.89330    0.31470    1.000
    H29      H        0.74340    0.93970    0.36420    1.000
    C51      C        0.60410    0.87480    0.29550    1.000
    C52      C        0.55130    0.80310    0.22220    1.000
    H30      H        0.48170    0.79000    0.20920    1.000
    C53      C        0.60040    0.75190    0.16920    1.000
    C54      C        0.70610    0.77210    0.18800    1.000
    H31      H        0.74040    0.73850    0.15240    1.000
    C55      C        0.55620    0.92370    0.36270    1.000
    C56      C        0.55190    0.66700    0.09790    1.000
    N7       N        0.24810    0.90590    0.38120    1.000
    N8       N        0.86290    0.86880    0.28210    1.000
    H32      H        0.88250    0.92910    0.30070    1.000
    O16      O        0.91800    0.71670    0.24750    1.000
    O17      O        0.60930    0.98670    0.42390    1.000
    O18      O        0.46560    0.89720    0.35080    1.000
    O19      O        0.45930    0.67650    0.03850    1.000
    O20      O        0.60590    0.59170    0.10230    1.000
    Cu4      Cu       0.59967    0.05314    0.55103    1.000
