# CIF file generated by openbabel 3.1.0, see https://openbabel.org
data_I
_chemical_name_common 'ILOJOJ_clean'
_cell_length_a 11.5539
_cell_length_b 15.4228
_cell_length_c 17.686
_cell_angle_alpha 114.095
_cell_angle_beta 90
_cell_angle_gamma 111.998
_space_group_name_H-M_alt 'P 1'
_space_group_name_Hall 'P 1'
loop_
    _symmetry_equiv_pos_as_xyz
    x,y,z
loop_
    _atom_site_label
    _atom_site_type_symbol
    _atom_site_fract_x
    _atom_site_fract_y
    _atom_site_fract_z
    _atom_site_occupancy
    Cu1      Cu       0.83723    0.60182    0.77019    1.000
    Cu2      Cu       0.23541    0.39818    0.72981    1.000
    Cu3      Cu       0.16277    0.39818    0.22981    1.000
    Cu4      Cu       0.76459    0.60182    0.27019    1.000
    H1       H        0.89350    0.53780    0.57780    1.000
    H2       H        0.12180    0.65060    0.78480    1.000
    H3       H        0.33040    0.66400    0.72600    1.000
    H4       H        0.30730    0.59040    0.62970    1.000
    H5       H        0.22420    0.80280    0.68660    1.000
    H6       H        0.32970    0.94840    0.66550    1.000
    H7       H        0.59810    0.84740    0.58500    1.000
    H8       H        0.49360    0.70280    0.60730    1.000
    H9       H        0.40720    0.05320    0.60770    1.000
    H10      H        0.52150    0.20000    0.58780    1.000
    H11      H        0.83290    0.15020    0.59840    1.000
    H12      H        0.72190    0.00920    0.62170    1.000
    H13      H        0.73900    0.34240    0.61340    1.000
    H14      H        0.72790    0.26900    0.51840    1.000
    H15      H        0.95420    0.38060    0.71300    1.000
    H16      H        0.14770    0.32560    0.53460    1.000
    H17      H        0.71130    0.61360    0.54030    1.000
    H18      H        0.35570    0.46220    0.92220    1.000
    H19      H        0.47120    0.34940    0.71520    1.000
    H20      H        0.66640    0.33600    0.77400    1.000
    H21      H        0.71690    0.40960    0.87030    1.000
    H22      H        0.42140    0.19720    0.81340    1.000
    H23      H        0.38130    0.05160    0.83450    1.000
    H24      H        0.75070    0.15260    0.91500    1.000
    H25      H        0.79080    0.29720    0.89270    1.000
    H26      H        0.35400    0.94680    0.89230    1.000
    H27      H        0.32150    0.80000    0.91220    1.000
    H28      H        0.68270    0.84980    0.90160    1.000
    H29      H        0.71270    0.99080    0.87830    1.000
    H30      H        0.39660    0.65760    0.88660    1.000
    H31      H        0.45890    0.73100    0.98160    1.000
    H32      H        0.57360    0.61940    0.78700    1.000
    H33      H        0.82210    0.67440    0.96540    1.000
    H34      H        0.09770    0.38640    0.95970    1.000
    H35      H        0.10650    0.46220    0.42220    1.000
    H36      H        0.87820    0.34940    0.21520    1.000
    H37      H        0.66960    0.33600    0.27400    1.000
    H38      H        0.69270    0.40960    0.37030    1.000
    H39      H        0.77580    0.19720    0.31340    1.000
    H40      H        0.67030    0.05160    0.33450    1.000
    H41      H        0.40190    0.15260    0.41500    1.000
    H42      H        0.50640    0.29720    0.39270    1.000
    H43      H        0.59280    0.94680    0.39230    1.000
    H44      H        0.47850    0.80000    0.41220    1.000
    H45      H        0.16710    0.84980    0.40160    1.000
    H46      H        0.27810    0.99080    0.37830    1.000
    H47      H        0.26100    0.65760    0.38660    1.000
    H48      H        0.27210    0.73100    0.48160    1.000
    H49      H        0.04580    0.61940    0.28700    1.000
    H50      H        0.85230    0.67440    0.46540    1.000
    H51      H        0.28870    0.38640    0.45970    1.000
    H52      H        0.64430    0.53780    0.07780    1.000
    H53      H        0.52880    0.65060    0.28480    1.000
    H54      H        0.33360    0.66400    0.22600    1.000
    H55      H        0.28310    0.59040    0.12970    1.000
    H56      H        0.57860    0.80280    0.18660    1.000
    H57      H        0.61870    0.94840    0.16550    1.000
    H58      H        0.24930    0.84740    0.08500    1.000
    H59      H        0.20920    0.70280    0.10730    1.000
    H60      H        0.64600    0.05320    0.10770    1.000
    H61      H        0.67850    0.20000    0.08780    1.000
    H62      H        0.31730    0.15020    0.09840    1.000
    H63      H        0.28730    0.00920    0.12170    1.000
    H64      H        0.60340    0.34240    0.11340    1.000
    H65      H        0.54110    0.26900    0.01840    1.000
    H66      H        0.42640    0.38060    0.21300    1.000
    H67      H        0.17790    0.32560    0.03460    1.000
    H68      H        0.90230    0.61360    0.04030    1.000
    C1       C        0.96760    0.56500    0.61600    1.000
    C2       C        0.08830    0.62540    0.72850    1.000
    C3       C        0.29160    0.64800    0.67060    1.000
    C4       C        0.35190    0.73940    0.65390    1.000
    C5       C        0.30150    0.81280    0.66820    1.000
    C6       C        0.36490    0.90020    0.65540    1.000
    C7       C        0.48070    0.91760    0.62760    1.000
    C8       C        0.52450    0.84060    0.60780    1.000
    C9       C        0.46120    0.75320    0.62100    1.000
    C10      C        0.55120    0.01300    0.61550    1.000
    C11      C        0.49330    0.07220    0.60610    1.000
    C12      C        0.56250    0.16100    0.59400    1.000
    C13      C        0.68760    0.19080    0.59140    1.000
    C14      C        0.74710    0.13180    0.60090    1.000
    C15      C        0.67950    0.04640    0.61370    1.000
    C16      C        0.75780    0.28480    0.57580    1.000
    C17      C        0.97590    0.35760    0.65990    1.000
    C18      C        0.08010    0.32600    0.56310    1.000
    C19      C        0.65140    0.52640    0.64400    1.000
    C20      C        0.57220    0.51360    0.57110    1.000
    C21      C        0.44400    0.44620    0.54660    1.000
    C22      C        0.62620    0.56760    0.52390    1.000
    C23      C        0.37420    0.38980    0.59680    1.000
    C24      C        0.40260    0.43500    0.88400    1.000
    C25      C        0.46290    0.37460    0.77150    1.000
    C26      C        0.64360    0.35200    0.82940    1.000
    C27      C        0.61250    0.26060    0.84610    1.000
    C28      C        0.48870    0.18720    0.83180    1.000
    C29      C        0.46470    0.09980    0.84460    1.000
    C30      C        0.56310    0.08240    0.87240    1.000
    C31      C        0.68390    0.15940    0.89220    1.000
    C32      C        0.70800    0.24680    0.87900    1.000
    C33      C        0.53820    0.98700    0.88450    1.000
    C34      C        0.42110    0.92780    0.89390    1.000
    C35      C        0.40150    0.83900    0.90600    1.000
    C36      C        0.49680    0.80920    0.90860    1.000
    C37      C        0.61530    0.86820    0.89910    1.000
    C38      C        0.63310    0.95360    0.88630    1.000
    C39      C        0.47300    0.71520    0.92420    1.000
    C40      C        0.61830    0.64240    0.84010    1.000
    C41      C        0.75410    0.67400    0.93690    1.000
    C42      C        0.12500    0.47360    0.85600    1.000
    C43      C        0.05860    0.48640    0.92890    1.000
    C44      C        0.99780    0.55380    0.95340    1.000
    C45      C        0.05860    0.43240    0.97610    1.000
    C46      C        0.98440    0.61020    0.90320    1.000
    C47      C        0.03240    0.43500    0.38400    1.000
    C48      C        0.91170    0.37460    0.27150    1.000
    C49      C        0.70840    0.35200    0.32940    1.000
    C50      C        0.64810    0.26060    0.34610    1.000
    C51      C        0.69850    0.18720    0.33180    1.000
    C52      C        0.63510    0.09980    0.34460    1.000
    C53      C        0.51930    0.08240    0.37240    1.000
    C54      C        0.47550    0.15940    0.39220    1.000
    C55      C        0.53880    0.24680    0.37900    1.000
    C56      C        0.44880    0.98700    0.38450    1.000
    C57      C        0.50670    0.92780    0.39390    1.000
    C58      C        0.43750    0.83900    0.40600    1.000
    C59      C        0.31240    0.80920    0.40860    1.000
    C60      C        0.25290    0.86820    0.39910    1.000
    C61      C        0.32050    0.95360    0.38630    1.000
    C62      C        0.24220    0.71520    0.42420    1.000
    C63      C        0.02410    0.64240    0.34010    1.000
    C64      C        0.91990    0.67400    0.43690    1.000
    C65      C        0.34860    0.47360    0.35600    1.000
    C66      C        0.42780    0.48640    0.42890    1.000
    C67      C        0.55600    0.55380    0.45340    1.000
    C68      C        0.37380    0.43240    0.47610    1.000
    C69      C        0.62580    0.61020    0.40320    1.000
    C70      C        0.59740    0.56500    0.11600    1.000
    C71      C        0.53710    0.62540    0.22850    1.000
    C72      C        0.35640    0.64800    0.17060    1.000
    C73      C        0.38750    0.73940    0.15390    1.000
    C74      C        0.51130    0.81280    0.16820    1.000
    C75      C        0.53530    0.90020    0.15540    1.000
    C76      C        0.43690    0.91760    0.12760    1.000
    C77      C        0.31610    0.84060    0.10780    1.000
    C78      C        0.29200    0.75320    0.12100    1.000
    C79      C        0.46180    0.01300    0.11550    1.000
    C80      C        0.57890    0.07220    0.10610    1.000
    C81      C        0.59850    0.16100    0.09400    1.000
    C82      C        0.50320    0.19080    0.09140    1.000
    C83      C        0.38470    0.13180    0.10090    1.000
    C84      C        0.36690    0.04640    0.11370    1.000
    C85      C        0.52700    0.28480    0.07580    1.000
    C86      C        0.38170    0.35760    0.15990    1.000
    C87      C        0.24590    0.32600    0.06310    1.000
    C88      C        0.87500    0.52640    0.14400    1.000
    C89      C        0.94140    0.51360    0.07110    1.000
    C90      C        0.00220    0.44620    0.04660    1.000
    C91      C        0.94140    0.56760    0.02390    1.000
    C92      C        0.01560    0.38980    0.09680    1.000
    N1       N        0.96919    0.59478    0.69930    1.000
    N2       N        0.07670    0.57680    0.59340    1.000
    N3       N        0.15521    0.61582    0.66690    1.000
    N4       N        0.08679    0.36238    0.64760    1.000
    N5       N        0.96250    0.29220    0.52890    1.000
    N6       N        0.89527    0.31634    0.58860    1.000
    N7       N        0.37441    0.40522    0.80070    1.000
    N8       N        0.49990    0.42320    0.90660    1.000
    N9       N        0.53939    0.38418    0.83310    1.000
    N10      N        0.72441    0.63762    0.85240    1.000
    N11      N        0.67030    0.70780    0.97110    1.000
    N12      N        0.57893    0.68366    0.91140    1.000
    N13      N        0.03081    0.40522    0.30070    1.000
    N14      N        0.92330    0.42320    0.40660    1.000
    N15      N        0.84479    0.38418    0.33310    1.000
    N16      N        0.91321    0.63762    0.35240    1.000
    N17      N        0.03750    0.70780    0.47110    1.000
    N18      N        0.10473    0.68366    0.41140    1.000
    N19      N        0.62559    0.59478    0.19930    1.000
    N20      N        0.50010    0.57680    0.09340    1.000
    N21      N        0.46061    0.61582    0.16690    1.000
    N22      N        0.27559    0.36238    0.14760    1.000
    N23      N        0.32970    0.29220    0.02890    1.000
    N24      N        0.42107    0.31634    0.08860    1.000
    O1       O        0.74285    0.61690    0.68640    1.000
    O2       O        0.63289    0.45298    0.66080    1.000
    O3       O        0.35706    0.45152    0.66610    1.000
    O4       O        0.33827    0.29574    0.57010    1.000
    O5       O        0.12595    0.38310    0.81360    1.000
    O6       O        0.17991    0.54702    0.83920    1.000
    O7       O        0.90554    0.54848    0.83390    1.000
    O8       O        0.04253    0.70426    0.92990    1.000
    O9       O        0.25715    0.38310    0.31360    1.000
    O10      O        0.36711    0.54702    0.33920    1.000
    O11      O        0.64294    0.54848    0.33390    1.000
    O12      O        0.66173    0.70426    0.42990    1.000
    O13      O        0.87405    0.61690    0.18640    1.000
    O14      O        0.82009    0.45298    0.16080    1.000
    O15      O        0.09446    0.45152    0.16610    1.000
    O16      O        0.95747    0.29574    0.07010    1.000
