# CIF file generated by openbabel 3.1.0, see https://openbabel.org
data_I
_chemical_name_common 'image0'
_cell_length_a 32.902
_cell_length_b 23.2587
_cell_length_c 18.5665
_cell_angle_alpha 90
_cell_angle_beta 122.058
_cell_angle_gamma 90
_space_group_name_H-M_alt 'P 1'
_space_group_name_Hall 'P 1'
loop_
    _symmetry_equiv_pos_as_xyz
    x,y,z
loop_
    _atom_site_label
    _atom_site_type_symbol
    _atom_site_fract_x
    _atom_site_fract_y
    _atom_site_fract_z
    _atom_site_occupancy
    Zn1      Zn       0.08875    0.76344    0.98914    1.000
    Zn2      Zn       0.19178    0.73690    0.08746    1.000
    O1       O        0.09210    0.30420    0.42210    1.000
    O2       O        0.18160    0.19610    0.64740    1.000
    O3       O        0.17400    0.68190    0.15030    1.000
    O4       O        0.11100    0.81450    0.92750    1.000
    O5       O        0.16990    0.32450    0.49520    1.000
    O6       O        0.18930    0.79610    0.00510    1.000
    O7       O        0.09660    0.70480    0.07640    1.000
    O8       O        0.10400    0.17280    0.57320    1.000
    N1       N        0.26420    0.72900    0.16000    1.000
    N2       N        0.51630    0.72740    0.41580    1.000
    C1       C        0.29150    0.76140    0.14290    1.000
    H1       H        0.27640    0.78680    0.09570    1.000
    C2       C        0.41710    0.72300    0.31470    1.000
    C3       C        0.12740    0.33420    0.43700    1.000
    C4       C        0.36370    0.72390    0.26110    1.000
    C5       C        0.15340    0.82390    0.94910    1.000
    C6       C        0.09820    0.98960    0.73560    1.000
    H2       H        0.07920    0.96840    0.68130    1.000
    H3       H        0.07610    0.00890    0.74880    1.000
    C7       C        0.14800    0.16520    0.63380    1.000
    C8       C        0.28600    0.69470    0.22790    1.000
    H4       H        0.26700    0.67210    0.24160    1.000
    C9       C        0.18080    0.50510    0.33470    1.000
    H5       H        0.20150    0.48500    0.31910    1.000
    H6       H        0.20120    0.52480    0.38990    1.000
    C10      C        0.13090    0.67560    0.12940    1.000
    C11      C        0.13240    0.95020    0.80680    1.000
    C12      C        0.12120    0.62710    0.17100    1.000
    C13      C        0.12370    0.90270    0.84120    1.000
    H7       H        0.09170    0.89090    0.82050    1.000
    C14      C        0.12050    0.08050    0.68060    1.000
    H8       H        0.08810    0.09060    0.64080    1.000
    C15      C        0.11830    0.38510    0.38130    1.000
    C16      C        0.15600    0.41650    0.38970    1.000
    H9       H        0.18810    0.40560    0.43040    1.000
    C17      C        0.14790    0.54690    0.26680    1.000
    C18      C        0.15790    0.11400    0.68860    1.000
    C19      C        0.16200    0.87230    0.90640    1.000
    C20      C        0.15830    0.59570    0.23500    1.000
    H10      H        0.19060    0.60700    0.25740    1.000
    C21      C        0.18030    0.96630    0.83550    1.000
    C22      C        0.10030    0.53220    0.23620    1.000
    C23      C        0.07170    0.39980    0.32080    1.000
    H11      H        0.04600    0.37680    0.31400    1.000
    C24      C        0.20520    0.09870    0.74620    1.000
    H12      H        0.23040    0.12230    0.75220    1.000
    C25      C        0.14680    0.46440    0.33810    1.000
    C26      C        0.34110    0.75900    0.19180    1.000
    H13      H        0.35950    0.78190    0.17690    1.000
    C27      C        0.10000    0.48000    0.27930    1.000
    C28      C        0.13130    0.03210    0.73170    1.000
    C29      C        0.07370    0.61260    0.14160    1.000
    H14      H        0.04840    0.63520    0.09840    1.000
    C30      C        0.17960    0.01780    0.79040    1.000
    C31      C        0.06210    0.44760    0.27020    1.000
    H15      H        0.02990    0.45820    0.22970    1.000
    C32      C        0.21620    0.04910    0.79510    1.000
    H16      H        0.24860    0.03710    0.83110    1.000
    C33      C        0.20930    0.88650    0.93250    1.000
    H17      H        0.23520    0.86350    0.97340    1.000
    C34      C        0.06280    0.56560    0.17480    1.000
    H18      H        0.03050    0.55640    0.15580    1.000
    C35      C        0.49130    0.70240    0.44340    1.000
    C36      C        0.33530    0.69100    0.27900    1.000
    H19      H        0.34970    0.66570    0.32640    1.000
    C37      C        0.21830    0.93430    0.89820    1.000
    C38      C        0.44460    0.73230    0.28330    1.000
    H20      H        0.42990    0.73800    0.22380    1.000
    C39      C        0.49340    0.73390    0.33430    1.000
    H21      H        0.51150    0.74010    0.30860    1.000
    C40      C        0.44300    0.68180    0.36580    1.000
    H22      H        0.43320    0.64270    0.35640    1.000
    C41      C        0.44160    0.77400    0.31700    1.000
    H23      H        0.42480    0.80730    0.28540    1.000
    C42      C        0.48990    0.77260    0.36500    1.000
    C43      C        0.44260    0.70690    0.40450    1.000
    H24      H        0.42650    0.70000    0.43360    1.000
    Zn3      Zn       0.58875    0.26344    0.98914    1.000
    Zn4      Zn       0.69178    0.23690    0.08746    1.000
    O9       O        0.59210    0.80420    0.42210    1.000
    O10      O        0.68160    0.69610    0.64740    1.000
    O11      O        0.67400    0.18190    0.15030    1.000
    O12      O        0.61100    0.31450    0.92750    1.000
    O13      O        0.66990    0.82450    0.49520    1.000
    O14      O        0.68930    0.29610    0.00510    1.000
    O15      O        0.59660    0.20480    0.07640    1.000
    O16      O        0.60400    0.67280    0.57320    1.000
    N3       N        0.76420    0.22900    0.16000    1.000
    N4       N        0.01630    0.22740    0.41580    1.000
    C44      C        0.79150    0.26140    0.14290    1.000
    H25      H        0.77640    0.28680    0.09570    1.000
    C45      C        0.91710    0.22300    0.31470    1.000
    C46      C        0.62740    0.83420    0.43700    1.000
    C47      C        0.86370    0.22390    0.26110    1.000
    C48      C        0.65340    0.32390    0.94910    1.000
    C49      C        0.59820    0.48960    0.73560    1.000
    H26      H        0.57920    0.46840    0.68130    1.000
    H27      H        0.57610    0.50890    0.74880    1.000
    C50      C        0.64800    0.66520    0.63380    1.000
    C51      C        0.78600    0.19470    0.22790    1.000
    H28      H        0.76700    0.17210    0.24160    1.000
    C52      C        0.68080    0.00510    0.33470    1.000
    H29      H        0.70150    0.98500    0.31910    1.000
    H30      H        0.70120    0.02480    0.38990    1.000
    C53      C        0.63090    0.17560    0.12940    1.000
    C54      C        0.63240    0.45020    0.80680    1.000
    C55      C        0.62120    0.12710    0.17100    1.000
    C56      C        0.62370    0.40270    0.84120    1.000
    H31      H        0.59170    0.39090    0.82050    1.000
    C57      C        0.62050    0.58050    0.68060    1.000
    H32      H        0.58810    0.59060    0.64080    1.000
    C58      C        0.61830    0.88510    0.38130    1.000
    C59      C        0.65600    0.91650    0.38970    1.000
    H33      H        0.68810    0.90560    0.43040    1.000
    C60      C        0.64790    0.04690    0.26680    1.000
    C61      C        0.65790    0.61400    0.68860    1.000
    C62      C        0.66200    0.37230    0.90640    1.000
    C63      C        0.65830    0.09570    0.23500    1.000
    H34      H        0.69060    0.10700    0.25740    1.000
    C64      C        0.68030    0.46630    0.83550    1.000
    C65      C        0.60030    0.03220    0.23620    1.000
    C66      C        0.57170    0.89980    0.32080    1.000
    H35      H        0.54600    0.87680    0.31400    1.000
    C67      C        0.70520    0.59870    0.74620    1.000
    H36      H        0.73040    0.62230    0.75220    1.000
    C68      C        0.64680    0.96440    0.33810    1.000
    C69      C        0.84110    0.25900    0.19180    1.000
    H37      H        0.85950    0.28190    0.17690    1.000
    C70      C        0.60000    0.98000    0.27930    1.000
    C71      C        0.63130    0.53210    0.73170    1.000
    C72      C        0.57370    0.11260    0.14160    1.000
    H38      H        0.54840    0.13520    0.09840    1.000
    C73      C        0.67960    0.51780    0.79040    1.000
    C74      C        0.56210    0.94760    0.27020    1.000
    H39      H        0.52990    0.95820    0.22970    1.000
    C75      C        0.71620    0.54910    0.79510    1.000
    H40      H        0.74860    0.53710    0.83110    1.000
    C76      C        0.70930    0.38650    0.93250    1.000
    H41      H        0.73520    0.36350    0.97340    1.000
    C77      C        0.56280    0.06560    0.17480    1.000
    H42      H        0.53050    0.05640    0.15580    1.000
    C78      C        0.99130    0.20240    0.44340    1.000
    C79      C        0.83530    0.19100    0.27900    1.000
    H43      H        0.84970    0.16570    0.32640    1.000
    C80      C        0.71830    0.43430    0.89820    1.000
    C81      C        0.94460    0.23230    0.28330    1.000
    H44      H        0.92990    0.23800    0.22380    1.000
    C82      C        0.99340    0.23390    0.33430    1.000
    H45      H        0.01150    0.24010    0.30860    1.000
    C83      C        0.94300    0.18180    0.36580    1.000
    H46      H        0.93320    0.14270    0.35640    1.000
    C84      C        0.94160    0.27400    0.31700    1.000
    H47      H        0.92480    0.30730    0.28540    1.000
    C85      C        0.98990    0.27260    0.36500    1.000
    C86      C        0.94260    0.20690    0.40450    1.000
    H48      H        0.92650    0.20000    0.43360    1.000
    Zn5      Zn       0.08875    0.23656    0.48914    1.000
    Zn6      Zn       0.19178    0.26310    0.58746    1.000
    O17      O        0.09210    0.69580    0.92210    1.000
    O18      O        0.18160    0.80390    0.14740    1.000
    O19      O        0.17400    0.31810    0.65030    1.000
    O20      O        0.11100    0.18550    0.42750    1.000
    O21      O        0.16990    0.67550    0.99520    1.000
    O22      O        0.18930    0.20390    0.50510    1.000
    O23      O        0.09660    0.29520    0.57640    1.000
    O24      O        0.10400    0.82720    0.07320    1.000
    N5       N        0.26420    0.27100    0.66000    1.000
    N6       N        0.51630    0.27260    0.91580    1.000
    C87      C        0.29150    0.23860    0.64290    1.000
    H49      H        0.27640    0.21320    0.59570    1.000
    C88      C        0.41710    0.27700    0.81470    1.000
    C89      C        0.12740    0.66580    0.93700    1.000
    C90      C        0.36370    0.27610    0.76110    1.000
    C91      C        0.15340    0.17610    0.44910    1.000
    C92      C        0.09820    0.01040    0.23560    1.000
    H50      H        0.07920    0.03160    0.18130    1.000
    H51      H        0.07610    0.99110    0.24880    1.000
    C93      C        0.14800    0.83480    0.13380    1.000
    C94      C        0.28600    0.30530    0.72790    1.000
    H52      H        0.26700    0.32790    0.74160    1.000
    C95      C        0.18080    0.49490    0.83470    1.000
    H53      H        0.20150    0.51500    0.81910    1.000
    H54      H        0.20120    0.47520    0.88990    1.000
    C96      C        0.13090    0.32440    0.62940    1.000
    C97      C        0.13240    0.04980    0.30680    1.000
    C98      C        0.12120    0.37290    0.67100    1.000
    C99      C        0.12370    0.09730    0.34120    1.000
    H55      H        0.09170    0.10910    0.32050    1.000
    C100     C        0.12050    0.91950    0.18060    1.000
    H56      H        0.08810    0.90940    0.14080    1.000
    C101     C        0.11830    0.61490    0.88130    1.000
    C102     C        0.15600    0.58350    0.88970    1.000
    H57      H        0.18810    0.59440    0.93040    1.000
    C103     C        0.14790    0.45310    0.76680    1.000
    C104     C        0.15790    0.88600    0.18860    1.000
    C105     C        0.16200    0.12770    0.40640    1.000
    C106     C        0.15830    0.40430    0.73500    1.000
    H58      H        0.19060    0.39300    0.75740    1.000
    C107     C        0.18030    0.03370    0.33550    1.000
    C108     C        0.10030    0.46780    0.73620    1.000
    C109     C        0.07170    0.60020    0.82080    1.000
    H59      H        0.04600    0.62320    0.81400    1.000
    C110     C        0.20520    0.90130    0.24620    1.000
    H60      H        0.23040    0.87770    0.25220    1.000
    C111     C        0.14680    0.53560    0.83810    1.000
    C112     C        0.34110    0.24100    0.69180    1.000
    H61      H        0.35950    0.21810    0.67690    1.000
    C113     C        0.10000    0.52000    0.77930    1.000
    C114     C        0.13130    0.96790    0.23170    1.000
    C115     C        0.07370    0.38740    0.64160    1.000
    H62      H        0.04840    0.36480    0.59840    1.000
    C116     C        0.17960    0.98220    0.29040    1.000
    C117     C        0.06210    0.55240    0.77020    1.000
    H63      H        0.02990    0.54180    0.72970    1.000
    C118     C        0.21620    0.95090    0.29510    1.000
    H64      H        0.24860    0.96290    0.33110    1.000
    C119     C        0.20930    0.11350    0.43250    1.000
    H65      H        0.23520    0.13650    0.47340    1.000
    C120     C        0.06280    0.43440    0.67480    1.000
    H66      H        0.03050    0.44360    0.65580    1.000
    C121     C        0.49130    0.29760    0.94340    1.000
    C122     C        0.33530    0.30900    0.77900    1.000
    H67      H        0.34970    0.33430    0.82640    1.000
    C123     C        0.21830    0.06570    0.39820    1.000
    C124     C        0.44460    0.26770    0.78330    1.000
    H68      H        0.42990    0.26200    0.72380    1.000
    C125     C        0.49340    0.26610    0.83430    1.000
    H69      H        0.51150    0.25990    0.80860    1.000
    C126     C        0.44300    0.31820    0.86580    1.000
    H70      H        0.43320    0.35730    0.85640    1.000
    C127     C        0.44160    0.22600    0.81700    1.000
    H71      H        0.42480    0.19270    0.78540    1.000
    C128     C        0.48990    0.22740    0.86500    1.000
    C129     C        0.44260    0.29310    0.90450    1.000
    H72      H        0.42650    0.30000    0.93360    1.000
    Zn7      Zn       0.58875    0.73656    0.48914    1.000
    Zn8      Zn       0.69178    0.76310    0.58746    1.000
    O25      O        0.59210    0.19580    0.92210    1.000
    O26      O        0.68160    0.30390    0.14740    1.000
    O27      O        0.67400    0.81810    0.65030    1.000
    O28      O        0.61100    0.68550    0.42750    1.000
    O29      O        0.66990    0.17550    0.99520    1.000
    O30      O        0.68930    0.70390    0.50510    1.000
    O31      O        0.59660    0.79520    0.57640    1.000
    O32      O        0.60400    0.32720    0.07320    1.000
    N7       N        0.76420    0.77100    0.66000    1.000
    N8       N        0.01630    0.77260    0.91580    1.000
    C130     C        0.79150    0.73860    0.64290    1.000
    H73      H        0.77640    0.71320    0.59570    1.000
    C131     C        0.91710    0.77700    0.81470    1.000
    C132     C        0.62740    0.16580    0.93700    1.000
    C133     C        0.86370    0.77610    0.76110    1.000
    C134     C        0.65340    0.67610    0.44910    1.000
    C135     C        0.59820    0.51040    0.23560    1.000
    H74      H        0.57920    0.53160    0.18130    1.000
    H75      H        0.57610    0.49110    0.24880    1.000
    C136     C        0.64800    0.33480    0.13380    1.000
    C137     C        0.78600    0.80530    0.72790    1.000
    H76      H        0.76700    0.82790    0.74160    1.000
    C138     C        0.68080    0.99490    0.83470    1.000
    H77      H        0.70150    0.01500    0.81910    1.000
    H78      H        0.70120    0.97520    0.88990    1.000
    C139     C        0.63090    0.82440    0.62940    1.000
    C140     C        0.63240    0.54980    0.30680    1.000
    C141     C        0.62120    0.87290    0.67100    1.000
    C142     C        0.62370    0.59730    0.34120    1.000
    H79      H        0.59170    0.60910    0.32050    1.000
    C143     C        0.62050    0.41950    0.18060    1.000
    H80      H        0.58810    0.40940    0.14080    1.000
    C144     C        0.61830    0.11490    0.88130    1.000
    C145     C        0.65600    0.08350    0.88970    1.000
    H81      H        0.68810    0.09440    0.93040    1.000
    C146     C        0.64790    0.95310    0.76680    1.000
    C147     C        0.65790    0.38600    0.18860    1.000
    C148     C        0.66200    0.62770    0.40640    1.000
    C149     C        0.65830    0.90430    0.73500    1.000
    H82      H        0.69060    0.89300    0.75740    1.000
    C150     C        0.68030    0.53370    0.33550    1.000
    C151     C        0.60030    0.96780    0.73620    1.000
    C152     C        0.57170    0.10020    0.82080    1.000
    H83      H        0.54600    0.12320    0.81400    1.000
    C153     C        0.70520    0.40130    0.24620    1.000
    H84      H        0.73040    0.37770    0.25220    1.000
    C154     C        0.64680    0.03560    0.83810    1.000
    C155     C        0.84110    0.74100    0.69180    1.000
    H85      H        0.85950    0.71810    0.67690    1.000
    C156     C        0.60000    0.02000    0.77930    1.000
    C157     C        0.63130    0.46790    0.23170    1.000
    C158     C        0.57370    0.88740    0.64160    1.000
    H86      H        0.54840    0.86480    0.59840    1.000
    C159     C        0.67960    0.48220    0.29040    1.000
    C160     C        0.56210    0.05240    0.77020    1.000
    H87      H        0.52990    0.04180    0.72970    1.000
    C161     C        0.71620    0.45090    0.29510    1.000
    H88      H        0.74860    0.46290    0.33110    1.000
    C162     C        0.70930    0.61350    0.43250    1.000
    H89      H        0.73520    0.63650    0.47340    1.000
    C163     C        0.56280    0.93440    0.67480    1.000
    H90      H        0.53050    0.94360    0.65580    1.000
    C164     C        0.99130    0.79760    0.94340    1.000
    C165     C        0.83530    0.80900    0.77900    1.000
    H91      H        0.84970    0.83430    0.82640    1.000
    C166     C        0.71830    0.56570    0.39820    1.000
    C167     C        0.94460    0.76770    0.78330    1.000
    H92      H        0.92990    0.76200    0.72380    1.000
    C168     C        0.99340    0.76610    0.83430    1.000
    H93      H        0.01150    0.75990    0.80860    1.000
    C169     C        0.94300    0.81820    0.86580    1.000
    H94      H        0.93320    0.85730    0.85640    1.000
    C170     C        0.94160    0.72600    0.81700    1.000
    H95      H        0.92480    0.69270    0.78540    1.000
    C171     C        0.98990    0.72740    0.86500    1.000
    C172     C        0.94260    0.79310    0.90450    1.000
    H96      H        0.92650    0.80000    0.93360    1.000
    Zn9      Zn       0.91125    0.76344    0.51086    1.000
    Zn10     Zn       0.80822    0.73690    0.41254    1.000
    O33      O        0.90790    0.30420    0.07790    1.000
    O34      O        0.81840    0.19610    0.85260    1.000
    O35      O        0.82600    0.68190    0.34970    1.000
    O36      O        0.88900    0.81450    0.57250    1.000
    O37      O        0.83010    0.32450    0.00480    1.000
    O38      O        0.81070    0.79610    0.49490    1.000
    O39      O        0.90340    0.70480    0.42360    1.000
    O40      O        0.89600    0.17280    0.92680    1.000
    N9       N        0.73580    0.72900    0.34000    1.000
    N10      N        0.48370    0.72740    0.08420    1.000
    C173     C        0.70850    0.76140    0.35710    1.000
    H97      H        0.72360    0.78680    0.40430    1.000
    C174     C        0.58290    0.72300    0.18530    1.000
    C175     C        0.87260    0.33420    0.06300    1.000
    C176     C        0.63630    0.72390    0.23890    1.000
    C177     C        0.84660    0.82390    0.55090    1.000
    C178     C        0.90180    0.98960    0.76440    1.000
    H98      H        0.92080    0.96840    0.81870    1.000
    H99      H        0.92390    0.00890    0.75120    1.000
    C179     C        0.85200    0.16520    0.86620    1.000
    C180     C        0.71400    0.69470    0.27210    1.000
    H100     H        0.73300    0.67210    0.25840    1.000
    C181     C        0.81920    0.50510    0.16530    1.000
    H101     H        0.79850    0.48500    0.18090    1.000
    H102     H        0.79880    0.52480    0.11010    1.000
    C182     C        0.86910    0.67560    0.37060    1.000
    C183     C        0.86760    0.95020    0.69320    1.000
    C184     C        0.87880    0.62710    0.32900    1.000
    C185     C        0.87630    0.90270    0.65880    1.000
    H103     H        0.90830    0.89090    0.67950    1.000
    C186     C        0.87950    0.08050    0.81940    1.000
    H104     H        0.91190    0.09060    0.85920    1.000
    C187     C        0.88170    0.38510    0.11870    1.000
    C188     C        0.84400    0.41650    0.11030    1.000
    H105     H        0.81190    0.40560    0.06960    1.000
    C189     C        0.85210    0.54690    0.23320    1.000
    C190     C        0.84210    0.11400    0.81140    1.000
    C191     C        0.83800    0.87230    0.59360    1.000
    C192     C        0.84170    0.59570    0.26500    1.000
    H106     H        0.80940    0.60700    0.24260    1.000
    C193     C        0.81970    0.96630    0.66450    1.000
    C194     C        0.89970    0.53220    0.26380    1.000
    C195     C        0.92830    0.39980    0.17920    1.000
    H107     H        0.95400    0.37680    0.18600    1.000
    C196     C        0.79480    0.09870    0.75380    1.000
    H108     H        0.76960    0.12230    0.74780    1.000
    C197     C        0.85320    0.46440    0.16190    1.000
    C198     C        0.65890    0.75900    0.30820    1.000
    H109     H        0.64050    0.78190    0.32310    1.000
    C199     C        0.90000    0.48000    0.22070    1.000
    C200     C        0.86870    0.03210    0.76830    1.000
    C201     C        0.92630    0.61260    0.35840    1.000
    H110     H        0.95160    0.63520    0.40160    1.000
    C202     C        0.82040    0.01780    0.70960    1.000
    C203     C        0.93790    0.44760    0.22980    1.000
    H111     H        0.97010    0.45820    0.27030    1.000
    C204     C        0.78380    0.04910    0.70490    1.000
    H112     H        0.75140    0.03710    0.66890    1.000
    C205     C        0.79070    0.88650    0.56750    1.000
    H113     H        0.76480    0.86350    0.52660    1.000
    C206     C        0.93720    0.56560    0.32520    1.000
    H114     H        0.96950    0.55640    0.34420    1.000
    C207     C        0.50870    0.70240    0.05660    1.000
    C208     C        0.66470    0.69100    0.22100    1.000
    H115     H        0.65030    0.66570    0.17360    1.000
    C209     C        0.78170    0.93430    0.60180    1.000
    C210     C        0.55540    0.73230    0.21670    1.000
    H116     H        0.57010    0.73800    0.27620    1.000
    C211     C        0.50660    0.73390    0.16570    1.000
    H117     H        0.48850    0.74010    0.19140    1.000
    C212     C        0.55700    0.68180    0.13420    1.000
    H118     H        0.56680    0.64270    0.14360    1.000
    C213     C        0.55840    0.77400    0.18300    1.000
    H119     H        0.57520    0.80730    0.21460    1.000
    C214     C        0.51010    0.77260    0.13500    1.000
    C215     C        0.55740    0.70690    0.09550    1.000
    H120     H        0.57350    0.70000    0.06640    1.000
    Zn11     Zn       0.41125    0.26344    0.51086    1.000
    Zn12     Zn       0.30822    0.23690    0.41254    1.000
    O41      O        0.40790    0.80420    0.07790    1.000
    O42      O        0.31840    0.69610    0.85260    1.000
    O43      O        0.32600    0.18190    0.34970    1.000
    O44      O        0.38900    0.31450    0.57250    1.000
    O45      O        0.33010    0.82450    0.00480    1.000
    O46      O        0.31070    0.29610    0.49490    1.000
    O47      O        0.40340    0.20480    0.42360    1.000
    O48      O        0.39600    0.67280    0.92680    1.000
    N11      N        0.23580    0.22900    0.34000    1.000
    N12      N        0.98370    0.22740    0.08420    1.000
    C216     C        0.20850    0.26140    0.35710    1.000
    H121     H        0.22360    0.28680    0.40430    1.000
    C217     C        0.08290    0.22300    0.18530    1.000
    C218     C        0.37260    0.83420    0.06300    1.000
    C219     C        0.13630    0.22390    0.23890    1.000
    C220     C        0.34660    0.32390    0.55090    1.000
    C221     C        0.40180    0.48960    0.76440    1.000
    H122     H        0.42080    0.46840    0.81870    1.000
    H123     H        0.42390    0.50890    0.75120    1.000
    C222     C        0.35200    0.66520    0.86620    1.000
    C223     C        0.21400    0.19470    0.27210    1.000
    H124     H        0.23300    0.17210    0.25840    1.000
    C224     C        0.31920    0.00510    0.16530    1.000
    H125     H        0.29850    0.98500    0.18090    1.000
    H126     H        0.29880    0.02480    0.11010    1.000
    C225     C        0.36910    0.17560    0.37060    1.000
    C226     C        0.36760    0.45020    0.69320    1.000
    C227     C        0.37880    0.12710    0.32900    1.000
    C228     C        0.37630    0.40270    0.65880    1.000
    H127     H        0.40830    0.39090    0.67950    1.000
    C229     C        0.37950    0.58050    0.81940    1.000
    H128     H        0.41190    0.59060    0.85920    1.000
    C230     C        0.38170    0.88510    0.11870    1.000
    C231     C        0.34400    0.91650    0.11030    1.000
    H129     H        0.31190    0.90560    0.06960    1.000
    C232     C        0.35210    0.04690    0.23320    1.000
    C233     C        0.34210    0.61400    0.81140    1.000
    C234     C        0.33800    0.37230    0.59360    1.000
    C235     C        0.34170    0.09570    0.26500    1.000
    H130     H        0.30940    0.10700    0.24260    1.000
    C236     C        0.31970    0.46630    0.66450    1.000
    C237     C        0.39970    0.03220    0.26380    1.000
    C238     C        0.42830    0.89980    0.17920    1.000
    H131     H        0.45400    0.87680    0.18600    1.000
    C239     C        0.29480    0.59870    0.75380    1.000
    H132     H        0.26960    0.62230    0.74780    1.000
    C240     C        0.35320    0.96440    0.16190    1.000
    C241     C        0.15890    0.25900    0.30820    1.000
    H133     H        0.14050    0.28190    0.32310    1.000
    C242     C        0.40000    0.98000    0.22070    1.000
    C243     C        0.36870    0.53210    0.76830    1.000
    C244     C        0.42630    0.11260    0.35840    1.000
    H134     H        0.45160    0.13520    0.40160    1.000
    C245     C        0.32040    0.51780    0.70960    1.000
    C246     C        0.43790    0.94760    0.22980    1.000
    H135     H        0.47010    0.95820    0.27030    1.000
    C247     C        0.28380    0.54910    0.70490    1.000
    H136     H        0.25140    0.53710    0.66890    1.000
    C248     C        0.29070    0.38650    0.56750    1.000
    H137     H        0.26480    0.36350    0.52660    1.000
    C249     C        0.43720    0.06560    0.32520    1.000
    H138     H        0.46950    0.05640    0.34420    1.000
    C250     C        0.00870    0.20240    0.05660    1.000
    C251     C        0.16470    0.19100    0.22100    1.000
    H139     H        0.15030    0.16570    0.17360    1.000
    C252     C        0.28170    0.43430    0.60180    1.000
    C253     C        0.05540    0.23230    0.21670    1.000
    H140     H        0.07010    0.23800    0.27620    1.000
    C254     C        0.00660    0.23390    0.16570    1.000
    H141     H        0.98850    0.24010    0.19140    1.000
    C255     C        0.05700    0.18180    0.13420    1.000
    H142     H        0.06680    0.14270    0.14360    1.000
    C256     C        0.05840    0.27400    0.18300    1.000
    H143     H        0.07520    0.30730    0.21460    1.000
    C257     C        0.01010    0.27260    0.13500    1.000
    C258     C        0.05740    0.20690    0.09550    1.000
    H144     H        0.07350    0.20000    0.06640    1.000
    Zn13     Zn       0.91125    0.23656    0.01086    1.000
    Zn14     Zn       0.80822    0.26310    0.91254    1.000
    O49      O        0.90790    0.69580    0.57790    1.000
    O50      O        0.81840    0.80390    0.35260    1.000
    O51      O        0.82600    0.31810    0.84970    1.000
    O52      O        0.88900    0.18550    0.07250    1.000
    O53      O        0.83010    0.67550    0.50480    1.000
    O54      O        0.81070    0.20390    0.99490    1.000
    O55      O        0.90340    0.29520    0.92360    1.000
    O56      O        0.89600    0.82720    0.42680    1.000
    N13      N        0.73580    0.27100    0.84000    1.000
    N14      N        0.48370    0.27260    0.58420    1.000
    C259     C        0.70850    0.23860    0.85710    1.000
    H145     H        0.72360    0.21320    0.90430    1.000
    C260     C        0.58290    0.27700    0.68530    1.000
    C261     C        0.87260    0.66580    0.56300    1.000
    C262     C        0.63630    0.27610    0.73890    1.000
    C263     C        0.84660    0.17610    0.05090    1.000
    C264     C        0.90180    0.01040    0.26440    1.000
    H146     H        0.92080    0.03160    0.31870    1.000
    H147     H        0.92390    0.99110    0.25120    1.000
    C265     C        0.85200    0.83480    0.36620    1.000
    C266     C        0.71400    0.30530    0.77210    1.000
    H148     H        0.73300    0.32790    0.75840    1.000
    C267     C        0.81920    0.49490    0.66530    1.000
    H149     H        0.79850    0.51500    0.68090    1.000
    H150     H        0.79880    0.47520    0.61010    1.000
    C268     C        0.86910    0.32440    0.87060    1.000
    C269     C        0.86760    0.04980    0.19320    1.000
    C270     C        0.87880    0.37290    0.82900    1.000
    C271     C        0.87630    0.09730    0.15880    1.000
    H151     H        0.90830    0.10910    0.17950    1.000
    C272     C        0.87950    0.91950    0.31940    1.000
    H152     H        0.91190    0.90940    0.35920    1.000
    C273     C        0.88170    0.61490    0.61870    1.000
    C274     C        0.84400    0.58350    0.61030    1.000
    H153     H        0.81190    0.59440    0.56960    1.000
    C275     C        0.85210    0.45310    0.73320    1.000
    C276     C        0.84210    0.88600    0.31140    1.000
    C277     C        0.83800    0.12770    0.09360    1.000
    C278     C        0.84170    0.40430    0.76500    1.000
    H154     H        0.80940    0.39300    0.74260    1.000
    C279     C        0.81970    0.03370    0.16450    1.000
    C280     C        0.89970    0.46780    0.76380    1.000
    C281     C        0.92830    0.60020    0.67920    1.000
    H155     H        0.95400    0.62320    0.68600    1.000
    C282     C        0.79480    0.90130    0.25380    1.000
    H156     H        0.76960    0.87770    0.24780    1.000
    C283     C        0.85320    0.53560    0.66190    1.000
    C284     C        0.65890    0.24100    0.80820    1.000
    H157     H        0.64050    0.21810    0.82310    1.000
    C285     C        0.90000    0.52000    0.72070    1.000
    C286     C        0.86870    0.96790    0.26830    1.000
    C287     C        0.92630    0.38740    0.85840    1.000
    H158     H        0.95160    0.36480    0.90160    1.000
    C288     C        0.82040    0.98220    0.20960    1.000
    C289     C        0.93790    0.55240    0.72980    1.000
    H159     H        0.97010    0.54180    0.77030    1.000
    C290     C        0.78380    0.95090    0.20490    1.000
    H160     H        0.75140    0.96290    0.16890    1.000
    C291     C        0.79070    0.11350    0.06750    1.000
    H161     H        0.76480    0.13650    0.02660    1.000
    C292     C        0.93720    0.43440    0.82520    1.000
    H162     H        0.96950    0.44360    0.84420    1.000
    C293     C        0.50870    0.29760    0.55660    1.000
    C294     C        0.66470    0.30900    0.72100    1.000
    H163     H        0.65030    0.33430    0.67360    1.000
    C295     C        0.78170    0.06570    0.10180    1.000
    C296     C        0.55540    0.26770    0.71670    1.000
    H164     H        0.57010    0.26200    0.77620    1.000
    C297     C        0.50660    0.26610    0.66570    1.000
    H165     H        0.48850    0.25990    0.69140    1.000
    C298     C        0.55700    0.31820    0.63420    1.000
    H166     H        0.56680    0.35730    0.64360    1.000
    C299     C        0.55840    0.22600    0.68300    1.000
    H167     H        0.57520    0.19270    0.71460    1.000
    C300     C        0.51010    0.22740    0.63500    1.000
    C301     C        0.55740    0.29310    0.59550    1.000
    H168     H        0.57350    0.30000    0.56640    1.000
    Zn15     Zn       0.41125    0.73656    0.01086    1.000
    Zn16     Zn       0.30822    0.76310    0.91254    1.000
    O57      O        0.40790    0.19580    0.57790    1.000
    O58      O        0.31840    0.30390    0.35260    1.000
    O59      O        0.32600    0.81810    0.84970    1.000
    O60      O        0.38900    0.68550    0.07250    1.000
    O61      O        0.33010    0.17550    0.50480    1.000
    O62      O        0.31070    0.70390    0.99490    1.000
    O63      O        0.40340    0.79520    0.92360    1.000
    O64      O        0.39600    0.32720    0.42680    1.000
    N15      N        0.23580    0.77100    0.84000    1.000
    N16      N        0.98370    0.77260    0.58420    1.000
    C302     C        0.20850    0.73860    0.85710    1.000
    H169     H        0.22360    0.71320    0.90430    1.000
    C303     C        0.08290    0.77700    0.68530    1.000
    C304     C        0.37260    0.16580    0.56300    1.000
    C305     C        0.13630    0.77610    0.73890    1.000
    C306     C        0.34660    0.67610    0.05090    1.000
    C307     C        0.40180    0.51040    0.26440    1.000
    H170     H        0.42080    0.53160    0.31870    1.000
    H171     H        0.42390    0.49110    0.25120    1.000
    C308     C        0.35200    0.33480    0.36620    1.000
    C309     C        0.21400    0.80530    0.77210    1.000
    H172     H        0.23300    0.82790    0.75840    1.000
    C310     C        0.31920    0.99490    0.66530    1.000
    H173     H        0.29850    0.01500    0.68090    1.000
    H174     H        0.29880    0.97520    0.61010    1.000
    C311     C        0.36910    0.82440    0.87060    1.000
    C312     C        0.36760    0.54980    0.19320    1.000
    C313     C        0.37880    0.87290    0.82900    1.000
    C314     C        0.37630    0.59730    0.15880    1.000
    H175     H        0.40830    0.60910    0.17950    1.000
    C315     C        0.37950    0.41950    0.31940    1.000
    H176     H        0.41190    0.40940    0.35920    1.000
    C316     C        0.38170    0.11490    0.61870    1.000
    C317     C        0.34400    0.08350    0.61030    1.000
    H177     H        0.31190    0.09440    0.56960    1.000
    C318     C        0.35210    0.95310    0.73320    1.000
    C319     C        0.34210    0.38600    0.31140    1.000
    C320     C        0.33800    0.62770    0.09360    1.000
    C321     C        0.34170    0.90430    0.76500    1.000
    H178     H        0.30940    0.89300    0.74260    1.000
    C322     C        0.31970    0.53370    0.16450    1.000
    C323     C        0.39970    0.96780    0.76380    1.000
    C324     C        0.42830    0.10020    0.67920    1.000
    H179     H        0.45400    0.12320    0.68600    1.000
    C325     C        0.29480    0.40130    0.25380    1.000
    H180     H        0.26960    0.37770    0.24780    1.000
    C326     C        0.35320    0.03560    0.66190    1.000
    C327     C        0.15890    0.74100    0.80820    1.000
    H181     H        0.14050    0.71810    0.82310    1.000
    C328     C        0.40000    0.02000    0.72070    1.000
    C329     C        0.36870    0.46790    0.26830    1.000
    C330     C        0.42630    0.88740    0.85840    1.000
    H182     H        0.45160    0.86480    0.90160    1.000
    C331     C        0.32040    0.48220    0.20960    1.000
    C332     C        0.43790    0.05240    0.72980    1.000
    H183     H        0.47010    0.04180    0.77030    1.000
    C333     C        0.28380    0.45090    0.20490    1.000
    H184     H        0.25140    0.46290    0.16890    1.000
    C334     C        0.29070    0.61350    0.06750    1.000
    H185     H        0.26480    0.63650    0.02660    1.000
    C335     C        0.43720    0.93440    0.82520    1.000
    H186     H        0.46950    0.94360    0.84420    1.000
    C336     C        0.00870    0.79760    0.55660    1.000
    C337     C        0.16470    0.80900    0.72100    1.000
    H187     H        0.15030    0.83430    0.67360    1.000
    C338     C        0.28170    0.56570    0.10180    1.000
    C339     C        0.05540    0.76770    0.71670    1.000
    H188     H        0.07010    0.76200    0.77620    1.000
    C340     C        0.00660    0.76610    0.66570    1.000
    H189     H        0.98850    0.75990    0.69140    1.000
    C341     C        0.05700    0.81820    0.63420    1.000
    H190     H        0.06680    0.85730    0.64360    1.000
    C342     C        0.05840    0.72600    0.68300    1.000
    H191     H        0.07520    0.69270    0.71460    1.000
    C343     C        0.01010    0.72740    0.63500    1.000
    C344     C        0.05740    0.79310    0.59550    1.000
    H192     H        0.07350    0.80000    0.56640    1.000
