# CIF file generated by openbabel 3.1.0, see https://openbabel.org
data_I
_chemical_name_common 'NIRGAY_clean'
_cell_length_a 16.1796
_cell_length_b 19.1505
_cell_length_c 19.5848
_cell_angle_alpha 112.451
_cell_angle_beta 93.548
_cell_angle_gamma 104.215
_space_group_name_H-M_alt 'P 1'
_space_group_name_Hall 'P 1'
loop_
    _symmetry_equiv_pos_as_xyz
    x,y,z
loop_
    _atom_site_label
    _atom_site_type_symbol
    _atom_site_fract_x
    _atom_site_fract_y
    _atom_site_fract_z
    _atom_site_occupancy
    Mn1      Mn       0.42687    0.17709    0.82601    1.000
    Mn2      Mn       0.78585    0.11855    0.90655    1.000
    Mn3      Mn       0.61404    0.11289    0.78311    1.000
    H1       H        0.68830    0.51280    0.59780    1.000
    H2       H        0.69190    0.64100    0.36890    1.000
    H3       H        0.98110    0.28720    0.43540    1.000
    H4       H        0.51090    0.30800    0.30760    1.000
    H5       H        0.77050    0.66530    0.45950    1.000
    H6       H        0.16630    0.51440    0.40360    1.000
    H7       H        0.05460    0.16980    0.12010    1.000
    H8       H        0.73090    0.59880    0.60510    1.000
    H9       H        0.91840    0.33520    0.27590    1.000
    H10      H        0.94340    0.30580    0.51010    1.000
    H11      H        0.48480    0.31120    0.38420    1.000
    H12      H        0.12100    0.24980    0.23990    1.000
    H13      H        0.07390    0.33580    0.62790    1.000
    H14      H        0.04810    0.33020    0.74810    1.000
    H15      H        0.27960    0.62640    0.64930    1.000
    H16      H        0.86580    0.27050    0.14890    1.000
    H17      H        0.25640    0.94300    0.71220    1.000
    H18      H        0.61950    0.92090    0.64800    1.000
    H19      H        0.48540    0.38500    0.49890    1.000
    H20      H        0.51720    0.28290    0.99560    1.000
    H21      H        0.27710    0.62110    0.56710    1.000
    H22      H        0.46320    0.86400    0.69130    1.000
    H23      H        0.22350    0.53290    0.72390    1.000
    H24      H        0.46100    0.28640    0.67920    1.000
    H25      H        0.82040    0.78020    0.62030    1.000
    H26      H        0.63510    0.57400    0.61740    1.000
    H27      H        0.72560    0.57240    0.31690    1.000
    H28      H        0.96520    0.36480    0.39300    1.000
    H29      H        0.64980    0.19390    0.60580    1.000
    H30      H        0.20450    0.60790    0.72030    1.000
    H31      H        0.68140    0.25700    0.18040    1.000
    H32      H        0.63080    0.57340    0.29660    1.000
    H33      H        0.20310    0.59500    0.47380    1.000
    H34      H        0.47820    0.35710    0.60490    1.000
    H35      H        0.49770    0.39730    0.24820    1.000
    H36      H        0.02440    0.27400    0.50150    1.000
    H37      H        0.16630    0.81130    0.66150    1.000
    H38      H        0.68330    0.18350    0.05750    1.000
    H39      H        0.59260    0.79920    0.54770    1.000
    H40      H        0.11050    0.41780    0.69730    1.000
    H41      H        0.10510    0.56600    0.43730    1.000
    H42      H        0.66820    0.26150    0.52450    1.000
    H43      H        0.84730    0.90190    0.72070    1.000
    H44      H        0.02090    0.43580    0.37820    1.000
    H45      H        0.82670    0.35640    0.67290    1.000
    H46      H        0.77500    0.66310    0.53940    1.000
    H47      H        0.51420    0.35500    0.12080    1.000
    H48      H        0.43440    0.34160    0.33590    1.000
    H49      H        0.13300    0.54670    0.73590    1.000
    H50      H        0.97260    0.26720    0.81510    1.000
    H51      H        0.37470    0.73410    0.64180    1.000
    H52      H        0.57860    0.45770    0.24030    1.000
    H53      H        0.75320    0.29310    0.73990    1.000
    H54      H        0.55170    0.45180    0.56930    1.000
    C1       C        0.91330    0.17030    0.03670    1.000
    C2       C        0.70385    0.77761    0.57405    1.000
    C3       C        0.22620    0.82178    0.66920    1.000
    C4       C        0.13190    0.50704    0.50060    1.000
    C5       C        0.65975    0.89270    0.64245    1.000
    C6       C        0.56000    0.42042    0.26262    1.000
    C7       C        0.02980    0.20710    0.15000    1.000
    C8       C        0.58690    0.46093    0.34876    1.000
    C9       C        0.60430    0.18018    0.93276    1.000
    C10      C        0.64365    0.81976    0.58234    1.000
    C11      C        0.55310    0.41981    0.39134    1.000
    C12      C        0.99540    0.30677    0.48894    1.000
    C13      C        0.64510    0.52910    0.50349    1.000
    C14      C        0.98890    0.32330    0.74621    1.000
    C15      C        0.61520    0.22580    0.60480    1.000
    C16      C        0.55050    0.23320    0.65034    1.000
    C17      C        0.07030    0.38950    0.65014    1.000
    C18      C        0.67540    0.57070    0.46058    1.000
    C19      C        0.85670    0.33850    0.70174    1.000
    C20      C        0.59980    0.31600    0.16344    1.000
    C21      C        0.78015    0.80840    0.62587    1.000
    C22      C        0.73605    0.92348    0.69427    1.000
    C23      C        0.09310    0.43061    0.59669    1.000
    C24      C        0.40350    0.85400    0.68690    1.000
    C25      C        0.91640    0.26420    0.16756    1.000
    C26      C        0.58290    0.45514    0.46929    1.000
    C27      C        0.54940    0.32180    0.10814    1.000
    C28      C        0.26240    0.76090    0.65176    1.000
    C29      C        0.24230    0.62070    0.60561    1.000
    C30      C        0.67610    0.58560    0.33699    1.000
    C31      C        0.85560    0.27317    0.78538    1.000
    C32      C        0.64380    0.53698    0.38320    1.000
    C33      C        0.81240    0.30050    0.74199    1.000
    C34      C        0.94910    0.30550    0.24398    1.000
    C35      C        0.62790    0.26800    0.55650    1.000
    C36      C        0.17180    0.54422    0.57755    1.000
    C37      C        0.64890    0.26260    0.14299    1.000
    C38      C        0.15360    0.54955    0.44903    1.000
    C39      C        0.14690    0.50780    0.62592    1.000
    C40      C        0.80490    0.22794    0.82604    1.000
    C41      C        0.51310    0.32500    0.60462    1.000
    C42      C        0.57830    0.31790    0.55970    1.000
    C43      C        0.55070    0.27800    0.03293    1.000
    C44      C        0.02740    0.30190    0.27167    1.000
    C45      C        0.05480    0.39132    0.52046    1.000
    C46      C        0.54610    0.41370    0.51815    1.000
    C47      C        0.73630    0.65469    0.49530    1.000
    C48      C        0.35040    0.77565    0.65739    1.000
    C49      C        0.06730    0.25220    0.22260    1.000
    C50      C        0.54020    0.19100    0.70160    1.000
    C51      C        0.36920    0.91610    0.70927    1.000
    C52      C        0.60200    0.22690    0.01320    1.000
    C53      C        0.02380    0.39450    0.39472    1.000
    C54      C        0.18000    0.55290    0.70906    1.000
    C55      C        0.67810    0.55630    0.58927    1.000
    C56      C        0.49000    0.33760    0.35110    1.000
    C57      C        0.95410    0.21550    0.11905    1.000
    C58      C        0.74890    0.00070    0.76083    1.000
    C59      C        0.65030    0.21870    0.06978    1.000
    C60      C        0.28060    0.90140    0.69940    1.000
    C61      C        0.42760    0.99941    0.74244    1.000
    C62      C        0.07330    0.43056    0.47339    1.000
    C63      C        0.94550    0.35040    0.70377    1.000
    C64      C        0.79625    0.88134    0.68598    1.000
    C65      C        0.50310    0.28150    0.64889    1.000
    C66      C        0.94280    0.28520    0.78640    1.000
    O1       O        0.20481    0.68656    0.62541    1.000
    O2       O        0.94540    0.12368    0.99336    1.000
    O3       O        0.60484    0.35876    0.23960    1.000
    O4       O        0.06802    0.34205    0.34539    1.000
    O5       O        0.59665    0.35913    0.51567    1.000
    O6       O        0.69871    0.04052    0.76280    1.000
    O7       O        0.67942    0.70468    0.51529    1.000
    O8       O        0.50874    0.00986    0.75041    1.000
    O9       O        0.65584    0.13871    0.91574    1.000
    O10      O        0.57993    0.14288    0.69396    1.000
    O11      O        0.81264    0.02375    0.81222    1.000
    O12      O        0.72357    0.21810    0.81817    1.000
    O13      O        0.39299    0.05383    0.76061    1.000
    O14      O        0.98272    0.38918    0.66282    1.000
    O15      O        0.84771    0.18335    0.01727    1.000
    O16      O        0.48937    0.20999    0.74903    1.000
    O17      O        0.84562    0.20254    0.86305    1.000
    O18      O        0.55536    0.18275    0.88222    1.000
    Mn4      Mn       0.57313    0.82291    0.17399    1.000
    Mn5      Mn       0.38596    0.88711    0.21689    1.000
    Mn6      Mn       0.21415    0.88145    0.09345    1.000
    H55      H        0.94540    0.83020    0.87990    1.000
    H56      H        0.50230    0.60270    0.75180    1.000
    H57      H        0.74360    0.05700    0.28780    1.000
    H58      H        0.36490    0.42600    0.38260    1.000
    H59      H        0.89490    0.43400    0.56270    1.000
    H60      H        0.97560    0.72600    0.49850    1.000
    H61      H        0.31860    0.74300    0.81960    1.000
    H62      H        0.27440    0.42760    0.68310    1.000
    H63      H        0.36920    0.42660    0.70340    1.000
    H64      H        0.48280    0.71710    0.00440    1.000
    H65      H        0.53680    0.13600    0.30870    1.000
    H66      H        0.02740    0.73280    0.18490    1.000
    H67      H        0.15270    0.09810    0.27930    1.000
    H68      H        0.42140    0.54230    0.75970    1.000
    H69      H        0.01890    0.71280    0.56460    1.000
    H70      H        0.48580    0.64500    0.87920    1.000
    H71      H        0.05660    0.69420    0.48990    1.000
    H72      H        0.92610    0.66420    0.37210    1.000
    H73      H        0.87900    0.75020    0.76010    1.000
    H74      H        0.97910    0.56420    0.62180    1.000
    H75      H        0.26910    0.40120    0.39490    1.000
    H76      H        0.77650    0.46710    0.27610    1.000
    H77      H        0.83370    0.48560    0.59640    1.000
    H78      H        0.44830    0.54820    0.43070    1.000
    H79      H        0.53900    0.71360    0.32080    1.000
    H80      H        0.13420    0.72950    0.85110    1.000
    H81      H        0.52180    0.64290    0.39510    1.000
    H82      H        0.79690    0.40500    0.52620    1.000
    H83      H        0.56560    0.65840    0.66410    1.000
    H84      H        0.72040    0.37360    0.35070    1.000
    H85      H        0.35020    0.80610    0.39420    1.000
    H86      H        0.22500    0.33690    0.46060    1.000
    H87      H        0.40740    0.20080    0.45230    1.000
    H88      H        0.17960    0.21980    0.37970    1.000
    H89      H        0.38050    0.07910    0.35200    1.000
    H90      H        0.22950    0.33470    0.54050    1.000
    H91      H        0.51520    0.68880    0.61580    1.000
    H92      H        0.30810    0.35900    0.63110    1.000
    H93      H        0.62530    0.26590    0.35820    1.000
    H94      H        0.86700    0.45330    0.26410    1.000
    H95      H        0.48910    0.69200    0.69240    1.000
    H96      H        0.31170    0.48720    0.40220    1.000
    H97      H        0.72290    0.37890    0.43290    1.000
    H98      H        0.51460    0.61500    0.50110    1.000
    H99      H        0.17330    0.64360    0.32710    1.000
    H100     H        0.88950    0.58220    0.30270    1.000
    H101     H        0.03480    0.63520    0.60700    1.000
    H102     H        0.08160    0.66480    0.72410    1.000
    H103     H        0.31670    0.81650    0.94250    1.000
    H104     H        0.33180    0.73850    0.47550    1.000
    H105     H        0.24680    0.70690    0.26010    1.000
    H106     H        0.95190    0.66980    0.25190    1.000
    H107     H        0.83370    0.18870    0.33850    1.000
    H108     H        0.79550    0.39210    0.27970    1.000
    C67      C        0.51000    0.66240    0.64890    1.000
    C68      C        0.39570    0.81982    0.06724    1.000
    C69      C        0.05720    0.71480    0.21360    1.000
    C70      C        0.73760    0.23910    0.34824    1.000
    C71      C        0.45390    0.58630    0.48185    1.000
    C72      C        0.59650    0.14600    0.31310    1.000
    C73      C        0.34970    0.78130    0.93022    1.000
    C74      C        0.00460    0.69323    0.51106    1.000
    C75      C        0.93270    0.74780    0.77740    1.000
    C76      C        0.32190    0.44370    0.41073    1.000
    C77      C        0.85310    0.49220    0.37408    1.000
    C78      C        0.04590    0.78450    0.88095    1.000
    C79      C        0.48690    0.67500    0.39538    1.000
    C80      C        0.39800    0.77310    0.98680    1.000
    C81      C        0.40020    0.68400    0.83656    1.000
    C82      C        0.49690    0.71850    0.35111    1.000
    C83      C        0.08360    0.73580    0.83244    1.000
    C84      C        0.82000    0.44710    0.29094    1.000
    C85      C        0.71940    0.09860    0.30060    1.000
    C86      C        0.44950    0.76680    0.34966    1.000
    C87      C        0.75770    0.37930    0.39439    1.000
    C88      C        0.84640    0.45045    0.55097    1.000
    C89      C        0.25110    0.99930    0.23917    1.000
    C90      C        0.32460    0.42930    0.53942    1.000
    C91      C        0.38480    0.77420    0.39520    1.000
    C92      C        0.21985    0.19160    0.37413    1.000
    C93      C        0.64960    0.22435    0.34261    1.000
    C94      C        0.05450    0.64960    0.29623    1.000
    C95      C        0.05090    0.69450    0.75602    1.000
    C96      C        0.26370    0.34531    0.50470    1.000
    C97      C        0.19510    0.77206    0.17396    1.000
    C98      C        0.26395    0.07652    0.30573    1.000
    C99      C        0.32390    0.41440    0.66301    1.000
    C100     C        0.41310    0.53907    0.65124    1.000
    C101     C        0.35620    0.46302    0.61680    1.000
    C102     C        0.97260    0.69810    0.72833    1.000
    C103     C        0.18760    0.69950    0.25801    1.000
    C104     C        0.97020    0.79290    0.85000    1.000
    C105     C        0.08670    0.82970    0.96330    1.000
    C106     C        0.35635    0.18024    0.41766    1.000
    C107     C        0.57240    0.00059    0.25756    1.000
    C108     C        0.35110    0.73740    0.85701    1.000
    C109     C        0.29615    0.22239    0.42595    1.000
    C110     C        0.44000    0.57958    0.73738    1.000
    C111     C        0.82820    0.45578    0.42245    1.000
    C112     C        0.44930    0.72200    0.96707    1.000
    C113     C        0.97620    0.60550    0.60528    1.000
    C114     C        0.86810    0.49296    0.49940    1.000
    C115     C        0.20375    0.11866    0.31402    1.000
    C116     C        0.92970    0.61050    0.34986    1.000
    C117     C        0.94520    0.60868    0.47954    1.000
    C118     C        0.01110    0.67670    0.25379    1.000
    C119     C        0.35490    0.47090    0.49651    1.000
    C120     C        0.45980    0.80900    0.29840    1.000
    C121     C        0.90690    0.56939    0.40331    1.000
    C122     C        0.41710    0.54486    0.53071    1.000
    C123     C        0.44690    0.58019    0.60866    1.000
    C124     C        0.37210    0.73200    0.44350    1.000
    C125     C        0.34025    0.10730    0.35755    1.000
    C126     C        0.77380    0.17822    0.33080    1.000
    C127     C        0.45060    0.67820    0.89186    1.000
    C128     C        0.14440    0.72683    0.21462    1.000
    C129     C        0.63080    0.08390    0.29073    1.000
    C130     C        0.92670    0.56944    0.52661    1.000
    C131     C        0.14330    0.66150    0.29826    1.000
    C132     C        0.42170    0.68210    0.44030    1.000
    O19      O        0.01728    0.61082    0.33718    1.000
    O20      O        0.49126    0.99014    0.24959    1.000
    O21      O        0.40335    0.64087    0.48433    1.000
    O22      O        0.42007    0.85712    0.30604    1.000
    O23      O        0.05460    0.87632    0.00664    1.000
    O24      O        0.44464    0.81725    0.11778    1.000
    O25      O        0.93198    0.65795    0.65461    1.000
    O26      O        0.60701    0.94617    0.23939    1.000
    O27      O        0.79519    0.31344    0.37459    1.000
    O28      O        0.15438    0.79746    0.13695    1.000
    O29      O        0.34416    0.86129    0.08426    1.000
    O30      O        0.32058    0.29532    0.48471    1.000
    O31      O        0.18736    0.97625    0.18778    1.000
    O32      O        0.51063    0.79001    0.25097    1.000
    O33      O        0.39516    0.64124    0.76040    1.000
    O34      O        0.15229    0.81665    0.98273    1.000
    O35      O        0.27643    0.78190    0.18183    1.000
    O36      O        0.30129    0.95948    0.23720    1.000
