# CIF file generated by openbabel 3.1.0, see https://openbabel.org
data_I
_chemical_name_common 'image0'
_cell_length_a 9.832
_cell_length_b 21.3218
_cell_length_c 13.7949
_cell_angle_alpha 90
_cell_angle_beta 105.602
_cell_angle_gamma 90
_space_group_name_H-M_alt 'P 1'
_space_group_name_Hall 'P 1'
loop_
    _symmetry_equiv_pos_as_xyz
    x,y,z
loop_
    _atom_site_label
    _atom_site_type_symbol
    _atom_site_fract_x
    _atom_site_fract_y
    _atom_site_fract_z
    _atom_site_occupancy
    Nd1      Nd       0.26124    0.01561    0.51486    1.000
    O1       O        0.12360    0.10250    0.54520    1.000
    O2       O        0.90180    0.06996    0.51470    1.000
    O3       O        0.85150    0.39497    0.93910    1.000
    O4       O        0.06070    0.43800    0.94810    1.000
    O5       O        0.08900    0.02920    0.34150    1.000
    O6       O        0.28720    0.98020    0.34650    1.000
    C1       C        0.97290    0.15760    0.62260    1.000
    C2       C        0.84100    0.16130    0.64550    1.000
    H1       H        0.76740    0.13290    0.61520    1.000
    C3       C        0.82040    0.20490    0.71010    1.000
    H2       H        0.73290    0.20540    0.72700    1.000
    C4       C        0.92320    0.24980    0.75390    1.000
    C5       C        0.90090    0.29860    0.81850    1.000
    H3       H        0.81310    0.30050    0.83490    1.000
    C6       C        0.00060    0.34220    0.85740    1.000
    C7       C        0.13090    0.33950    0.83360    1.000
    H4       H        0.20160    0.36990    0.86040    1.000
    C8       C        0.15620    0.29310    0.77200    1.000
    H5       H        0.24490    0.29180    0.75690    1.000
    C9       C        0.05390    0.24710    0.73050    1.000
    C10      C        0.07510    0.19940    0.66560    1.000
    H6       H        0.16420    0.19640    0.65140    1.000
    C11      C        0.00160    0.10600    0.55590    1.000
    C12      C        0.96900    0.39580    0.91990    1.000
    C13      C        0.17190    0.95680    0.03340    1.000
    H7       H        0.23050    0.93420    0.00100    1.000
    C14      C        0.21160    0.96300    0.13500    1.000
    H8       H        0.29820    0.94530    0.17300    1.000
    C15      C        0.12460    0.99560    0.18450    1.000
    C16      C        0.00150    0.02100    0.13150    1.000
    H9       H        0.94420    0.04260    0.16610    1.000
    C17      C        0.95610    0.01620    0.02520    1.000
    C18      C        0.16910    0.00200    0.29700    1.000
    Nd2      Nd       0.23876    0.51561    0.98514    1.000
    O7       O        0.37640    0.60250    0.95480    1.000
    O8       O        0.59820    0.56996    0.98530    1.000
    O9       O        0.64850    0.89497    0.56090    1.000
    O10      O        0.43930    0.93800    0.55190    1.000
    O11      O        0.41100    0.52920    0.15850    1.000
    O12      O        0.21280    0.48020    0.15350    1.000
    C19      C        0.52710    0.65760    0.87740    1.000
    C20      C        0.65900    0.66130    0.85450    1.000
    H10      H        0.73260    0.63290    0.88480    1.000
    C21      C        0.67960    0.70490    0.78990    1.000
    H11      H        0.76710    0.70540    0.77300    1.000
    C22      C        0.57680    0.74980    0.74610    1.000
    C23      C        0.59910    0.79860    0.68150    1.000
    H12      H        0.68690    0.80050    0.66510    1.000
    C24      C        0.49940    0.84220    0.64260    1.000
    C25      C        0.36910    0.83950    0.66640    1.000
    H13      H        0.29840    0.86990    0.63960    1.000
    C26      C        0.34380    0.79310    0.72800    1.000
    H14      H        0.25510    0.79180    0.74310    1.000
    C27      C        0.44610    0.74710    0.76950    1.000
    C28      C        0.42490    0.69940    0.83440    1.000
    H15      H        0.33580    0.69640    0.84860    1.000
    C29      C        0.49840    0.60600    0.94410    1.000
    C30      C        0.53100    0.89580    0.58010    1.000
    C31      C        0.32810    0.45680    0.46660    1.000
    H16      H        0.26950    0.43420    0.49900    1.000
    C32      C        0.28840    0.46300    0.36500    1.000
    H17      H        0.20180    0.44530    0.32700    1.000
    C33      C        0.37540    0.49560    0.31550    1.000
    C34      C        0.49850    0.52100    0.36850    1.000
    H18      H        0.55580    0.54260    0.33390    1.000
    C35      C        0.54390    0.51620    0.47480    1.000
    C36      C        0.33090    0.50200    0.20300    1.000
    Nd3      Nd       0.73876    0.98438    0.48514    1.000
    O13      O        0.87640    0.89750    0.45480    1.000
    O14      O        0.09820    0.93004    0.48530    1.000
    O15      O        0.14850    0.60503    0.06090    1.000
    O16      O        0.93930    0.56200    0.05190    1.000
    O17      O        0.91100    0.97080    0.65850    1.000
    O18      O        0.71280    0.01980    0.65350    1.000
    C37      C        0.02710    0.84240    0.37740    1.000
    C38      C        0.15900    0.83870    0.35450    1.000
    H19      H        0.23260    0.86710    0.38480    1.000
    C39      C        0.17960    0.79510    0.28990    1.000
    H20      H        0.26710    0.79460    0.27300    1.000
    C40      C        0.07680    0.75020    0.24610    1.000
    C41      C        0.09910    0.70140    0.18150    1.000
    H21      H        0.18690    0.69950    0.16510    1.000
    C42      C        0.99940    0.65780    0.14260    1.000
    C43      C        0.86910    0.66050    0.16640    1.000
    H22      H        0.79840    0.63010    0.13960    1.000
    C44      C        0.84380    0.70690    0.22800    1.000
    H23      H        0.75510    0.70820    0.24310    1.000
    C45      C        0.94610    0.75290    0.26950    1.000
    C46      C        0.92490    0.80060    0.33440    1.000
    H24      H        0.83580    0.80360    0.34860    1.000
    C47      C        0.99840    0.89400    0.44410    1.000
    C48      C        0.03100    0.60420    0.08010    1.000
    C49      C        0.82810    0.04320    0.96660    1.000
    H25      H        0.76950    0.06580    0.99900    1.000
    C50      C        0.78840    0.03700    0.86500    1.000
    H26      H        0.70180    0.05470    0.82700    1.000
    C51      C        0.87540    0.00440    0.81550    1.000
    C52      C        0.99850    0.97900    0.86850    1.000
    H27      H        0.05580    0.95740    0.83390    1.000
    C53      C        0.04390    0.98380    0.97480    1.000
    C54      C        0.83090    0.99800    0.70300    1.000
    Nd4      Nd       0.76124    0.48438    0.01486    1.000
    O19      O        0.62360    0.39750    0.04520    1.000
    O20      O        0.40180    0.43004    0.01470    1.000
    O21      O        0.35150    0.10503    0.43910    1.000
    O22      O        0.56070    0.06200    0.44810    1.000
    O23      O        0.58900    0.47080    0.84150    1.000
    O24      O        0.78720    0.51980    0.84650    1.000
    C55      C        0.47290    0.34240    0.12260    1.000
    C56      C        0.34100    0.33870    0.14550    1.000
    H28      H        0.26740    0.36710    0.11520    1.000
    C57      C        0.32040    0.29510    0.21010    1.000
    H29      H        0.23290    0.29460    0.22700    1.000
    C58      C        0.42320    0.25020    0.25390    1.000
    C59      C        0.40090    0.20140    0.31850    1.000
    H30      H        0.31310    0.19950    0.33490    1.000
    C60      C        0.50060    0.15780    0.35740    1.000
    C61      C        0.63090    0.16050    0.33360    1.000
    H31      H        0.70160    0.13010    0.36040    1.000
    C62      C        0.65620    0.20690    0.27200    1.000
    H32      H        0.74490    0.20820    0.25690    1.000
    C63      C        0.55390    0.25290    0.23050    1.000
    C64      C        0.57510    0.30060    0.16560    1.000
    H33      H        0.66420    0.30360    0.15140    1.000
    C65      C        0.50160    0.39400    0.05590    1.000
    C66      C        0.46900    0.10420    0.41990    1.000
    C67      C        0.67190    0.54320    0.53340    1.000
    H34      H        0.73050    0.56580    0.50100    1.000
    C68      C        0.71160    0.53700    0.63500    1.000
    H35      H        0.79820    0.55470    0.67300    1.000
    C69      C        0.62460    0.50440    0.68450    1.000
    C70      C        0.50150    0.47900    0.63150    1.000
    H36      H        0.44420    0.45740    0.66610    1.000
    C71      C        0.45610    0.48380    0.52520    1.000
    C72      C        0.66910    0.49800    0.79700    1.000
