# CIF file generated by openbabel 3.1.0, see https://openbabel.org
data_I
_chemical_name_common 'image0'
_cell_length_a 13.1319
_cell_length_b 13.1319
_cell_length_c 13.1319
_cell_angle_alpha 90
_cell_angle_beta 90
_cell_angle_gamma 90
_space_group_name_H-M_alt 'P 1'
_space_group_name_Hall 'P 1'
loop_
    _symmetry_equiv_pos_as_xyz
    x,y,z
loop_
    _atom_site_label
    _atom_site_type_symbol
    _atom_site_fract_x
    _atom_site_fract_y
    _atom_site_fract_z
    _atom_site_occupancy
    N1       N        0.63678    0.93413    0.95434    1.000
    N2       N        0.71535    0.97950    0.95918    1.000
    N3       N        0.79275    0.02155    0.96282    1.000
    N4       N        0.86322    0.06587    0.45434    1.000
    N5       N        0.78465    0.02050    0.45918    1.000
    N6       N        0.70725    0.97845    0.46282    1.000
    N7       N        0.36322    0.43413    0.54566    1.000
    N8       N        0.28465    0.47950    0.54082    1.000
    N9       N        0.20725    0.52155    0.53718    1.000
    N10      N        0.13678    0.56587    0.04566    1.000
    N11      N        0.21535    0.52050    0.04082    1.000
    N12      N        0.29275    0.47845    0.03718    1.000
    N13      N        0.95434    0.63678    0.93413    1.000
    N14      N        0.95918    0.71535    0.97950    1.000
    N15      N        0.96282    0.79275    0.02155    1.000
    N16      N        0.45434    0.86322    0.06587    1.000
    N17      N        0.45918    0.78465    0.02050    1.000
    N18      N        0.46282    0.70725    0.97845    1.000
    N19      N        0.54566    0.36322    0.43413    1.000
    N20      N        0.54082    0.28465    0.47950    1.000
    N21      N        0.53718    0.20725    0.52155    1.000
    N22      N        0.04566    0.13678    0.56587    1.000
    N23      N        0.04082    0.21535    0.52050    1.000
    N24      N        0.03718    0.29275    0.47845    1.000
    N25      N        0.93413    0.95434    0.63678    1.000
    N26      N        0.97950    0.95918    0.71535    1.000
    N27      N        0.02155    0.96282    0.79275    1.000
    N28      N        0.06587    0.45434    0.86322    1.000
    N29      N        0.02050    0.45918    0.78465    1.000
    N30      N        0.97845    0.46282    0.70725    1.000
    N31      N        0.43413    0.54566    0.36322    1.000
    N32      N        0.47950    0.54082    0.28465    1.000
    N33      N        0.52155    0.53718    0.20725    1.000
    N34      N        0.56587    0.04566    0.13678    1.000
    N35      N        0.52050    0.04082    0.21535    1.000
    N36      N        0.47845    0.03718    0.29275    1.000
    N37      N        0.36322    0.06587    0.04566    1.000
    N38      N        0.28465    0.02050    0.04082    1.000
    N39      N        0.20725    0.97845    0.03718    1.000
    N40      N        0.13678    0.93413    0.54566    1.000
    N41      N        0.21535    0.97950    0.54082    1.000
    N42      N        0.29275    0.02155    0.53718    1.000
    N43      N        0.63678    0.56587    0.45434    1.000
    N44      N        0.71535    0.52050    0.45918    1.000
    N45      N        0.79275    0.47845    0.46282    1.000
    N46      N        0.86322    0.43413    0.95434    1.000
    N47      N        0.78465    0.47950    0.95918    1.000
    N48      N        0.70725    0.52155    0.96282    1.000
    N49      N        0.04566    0.36322    0.06587    1.000
    N50      N        0.04082    0.28465    0.02050    1.000
    N51      N        0.03718    0.20725    0.97845    1.000
    N52      N        0.54566    0.13678    0.93413    1.000
    N53      N        0.54082    0.21535    0.97950    1.000
    N54      N        0.53718    0.29275    0.02155    1.000
    N55      N        0.45434    0.63678    0.56587    1.000
    N56      N        0.45918    0.71535    0.52050    1.000
    N57      N        0.46282    0.79275    0.47845    1.000
    N58      N        0.95434    0.86322    0.43413    1.000
    N59      N        0.95918    0.78465    0.47950    1.000
    N60      N        0.96282    0.70725    0.52155    1.000
    N61      N        0.06587    0.04566    0.36322    1.000
    N62      N        0.02050    0.04082    0.28465    1.000
    N63      N        0.97845    0.03718    0.20725    1.000
    N64      N        0.93413    0.54566    0.13678    1.000
    N65      N        0.97950    0.54082    0.21535    1.000
    N66      N        0.02155    0.53718    0.29275    1.000
    N67      N        0.56587    0.45434    0.63678    1.000
    N68      N        0.52050    0.45918    0.71535    1.000
    N69      N        0.47845    0.46282    0.79275    1.000
    N70      N        0.43413    0.95434    0.86322    1.000
    N71      N        0.47950    0.95918    0.78465    1.000
    N72      N        0.52155    0.96282    0.70725    1.000
    Fe1      Fe       0.50000    0.00000    0.00000    1.000
    Fe2      Fe       0.00000    0.00000    0.50000    1.000
    Fe3      Fe       0.50000    0.50000    0.50000    1.000
    Fe4      Fe       0.00000    0.50000    0.00000    1.000
    K1       K        0.00000    0.00000    0.00000    1.000
    K2       K        0.50000    0.00000    0.50000    1.000
    K3       K        0.00000    0.50000    0.50000    1.000
    K4       K        0.50000    0.50000    0.00000    1.000
