# CIF file generated by openbabel 3.1.0, see https://openbabel.org
data_I
_chemical_name_common 'image0'
_cell_length_a 10.162
_cell_length_b 15.986
_cell_length_c 23.971
_cell_angle_alpha 90
_cell_angle_beta 99.582
_cell_angle_gamma 90
_space_group_name_H-M_alt 'P 1'
_space_group_name_Hall 'P 1'
loop_
    _symmetry_equiv_pos_as_xyz
    x,y,z
loop_
    _atom_site_label
    _atom_site_type_symbol
    _atom_site_fract_x
    _atom_site_fract_y
    _atom_site_fract_z
    _atom_site_occupancy
    Co1      Co       0.16900    0.49825    0.66578    1.000
    Co2      Co       0.98648    0.61151    0.75450    1.000
    O1       O        0.99510    0.44422    0.63900    1.000
    O2       O        0.90490    0.52730    0.69528    1.000
    O3       O        0.40640    0.52590    0.68027    1.000
    O4       O        0.29370    0.42929    0.62922    1.000
    O5       O        0.48660    0.17974    0.66629    1.000
    O6       O        0.64640    0.08930    0.68479    1.000
    O7       O        0.61340    0.97558    0.30258    1.000
    O8       O        0.70680    0.04886    0.24208    1.000
    O9       O        0.86140    0.33199    0.28078    1.000
    O10      O        0.85330    0.38731    0.36527    1.000
    O11      O        0.83420    0.68650    0.71040    1.000
    N1       N        0.69220    0.78880    0.68660    1.000
    C1       C        0.89870    0.46970    0.66071    1.000
    C2       C        0.76710    0.42630    0.64447    1.000
    C3       C        0.76230    0.34960    0.61688    1.000
    H1       H        0.84050    0.32570    0.60890    1.000
    C4       C        0.64130    0.30840    0.60116    1.000
    C5       C        0.52490    0.34590    0.61233    1.000
    H2       H        0.44340    0.31900    0.60170    1.000
    C6       C        0.52900    0.42290    0.63904    1.000
    C7       C        0.65100    0.46200    0.65624    1.000
    H3       H        0.65460    0.51250    0.67580    1.000
    C8       C        0.40320    0.46280    0.65085    1.000
    C9       C        0.63880    0.22730    0.56948    1.000
    C10      C        0.67210    0.22940    0.51589    1.000
    H4       H        0.69030    0.28090    0.50090    1.000
    C11      C        0.67970    0.15860    0.48350    1.000
    C12      C        0.65720    0.08210    0.50787    1.000
    H5       H        0.66410    0.03300    0.48770    1.000
    C13      C        0.62490    0.07790    0.56150    1.000
    H6       H        0.60980    0.02610    0.57680    1.000
    C14      C        0.61450    0.14960    0.59282    1.000
    C15      C        0.57970    0.13930    0.65217    1.000
    C16      C        0.71090    0.16490    0.42457    1.000
    C17      C        0.76410    0.23840    0.40593    1.000
    H7       H        0.78180    0.28310    0.43080    1.000
    C18      C        0.79120    0.24650    0.35113    1.000
    C19      C        0.76500    0.17890    0.31413    1.000
    H8       H        0.78400    0.18310    0.27760    1.000
    C20      C        0.71100    0.10577    0.33121    1.000
    C21      C        0.68360    0.09890    0.38597    1.000
    H9       H        0.64660    0.04970    0.39710    1.000
    C22      C        0.83980    0.32720    0.33056    1.000
    C23      C        0.67390    0.03680    0.28881    1.000
    C24      C        0.79740    0.75850    0.71040    1.000
    C25      C        0.59680    0.72750    0.66250    1.000
    H10      H        0.63360    0.67250    0.67010    1.000
    H11      H        0.57550    0.73590    0.62230    1.000
    H12      H        0.51720    0.73290    0.67890    1.000
    C26      C        0.91410    0.82260    0.73140    1.000
    H13      H        0.93120    0.82360    0.77200    1.000
    H14      H        0.88840    0.87740    0.71740    1.000
    H15      H        0.99340    0.80550    0.71760    1.000
    C27      C        0.65480    0.88020    0.69300    1.000
    H16      H        0.56870    0.89080    0.67090    1.000
    H17      H        0.65210    0.89180    0.73210    1.000
    H18      H        0.72000    0.91550    0.68010    1.000
    O12      O        0.90540    0.72410    0.72060    1.000
    N2       N        0.77510    0.83550    0.70350    1.000
    C28      C        0.66810    0.71200    0.71780    1.000
    H19      H        0.64610    0.67170    0.68790    1.000
    H20      H        0.59650    0.75150    0.71640    1.000
    H21      H        0.68140    0.68380    0.75360    1.000
    C29      C        0.91480    0.87520    0.70540    1.000
    H22      H        0.98130    0.83200    0.70980    1.000
    H23      H        0.93250    0.91330    0.73670    1.000
    H24      H        0.91720    0.90500    0.67080    1.000
    H25      H        0.67340    0.93870    0.69000    1.000
    H26      H        0.60250    0.86100    0.65830    1.000
    H27      H        0.60610    0.87140    0.72350    1.000
    Co3      Co       0.33100    0.99825    0.83422    1.000
    Co4      Co       0.51352    0.11151    0.74550    1.000
    O13      O        0.50490    0.94422    0.86100    1.000
    O14      O        0.59510    0.02730    0.80472    1.000
    O15      O        0.09360    0.02590    0.81973    1.000
    O16      O        0.20630    0.92929    0.87078    1.000
    O17      O        0.01340    0.67974    0.83371    1.000
    O18      O        0.85360    0.58930    0.81521    1.000
    O19      O        0.88660    0.47558    0.19742    1.000
    O20      O        0.79320    0.54886    0.25792    1.000
    O21      O        0.63860    0.83199    0.21922    1.000
    O22      O        0.64670    0.88731    0.13473    1.000
    O23      O        0.66580    0.18650    0.78960    1.000
    N3       N        0.80780    0.28880    0.81340    1.000
    C30      C        0.60130    0.96970    0.83929    1.000
    C31      C        0.73290    0.92630    0.85553    1.000
    C32      C        0.73770    0.84960    0.88312    1.000
    H28      H        0.65950    0.82570    0.89110    1.000
    C33      C        0.85870    0.80840    0.89884    1.000
    C34      C        0.97510    0.84590    0.88767    1.000
    H29      H        0.05660    0.81900    0.89830    1.000
    C35      C        0.97100    0.92290    0.86096    1.000
    C36      C        0.84900    0.96200    0.84376    1.000
    H30      H        0.84540    0.01250    0.82420    1.000
    C37      C        0.09680    0.96280    0.84915    1.000
    C38      C        0.86120    0.72730    0.93052    1.000
    C39      C        0.82790    0.72940    0.98411    1.000
    H31      H        0.80970    0.78090    0.99910    1.000
    C40      C        0.82030    0.65860    0.01650    1.000
    C41      C        0.84280    0.58210    0.99213    1.000
    H32      H        0.83590    0.53300    0.01230    1.000
    C42      C        0.87510    0.57790    0.93850    1.000
    H33      H        0.89020    0.52610    0.92320    1.000
    C43      C        0.88550    0.64960    0.90718    1.000
    C44      C        0.92030    0.63930    0.84783    1.000
    C45      C        0.78910    0.66490    0.07543    1.000
    C46      C        0.73590    0.73840    0.09407    1.000
    H34      H        0.71820    0.78310    0.06920    1.000
    C47      C        0.70880    0.74650    0.14887    1.000
    C48      C        0.73500    0.67890    0.18587    1.000
    H35      H        0.71600    0.68310    0.22240    1.000
    C49      C        0.78900    0.60577    0.16879    1.000
    C50      C        0.81640    0.59890    0.11403    1.000
    H36      H        0.85340    0.54970    0.10290    1.000
    C51      C        0.66020    0.82720    0.16944    1.000
    C52      C        0.82610    0.53680    0.21119    1.000
    C53      C        0.70260    0.25850    0.78960    1.000
    C54      C        0.90320    0.22750    0.83750    1.000
    H37      H        0.86640    0.17250    0.82990    1.000
    H38      H        0.92450    0.23590    0.87770    1.000
    H39      H        0.98280    0.23290    0.82110    1.000
    C55      C        0.58590    0.32260    0.76860    1.000
    H40      H        0.56880    0.32360    0.72800    1.000
    H41      H        0.61160    0.37740    0.78260    1.000
    H42      H        0.50660    0.30550    0.78240    1.000
    C56      C        0.84520    0.38020    0.80700    1.000
    H43      H        0.93130    0.39080    0.82910    1.000
    H44      H        0.84790    0.39180    0.76790    1.000
    H45      H        0.78000    0.41550    0.81990    1.000
    O24      O        0.59460    0.22410    0.77940    1.000
    N4       N        0.72490    0.33550    0.79650    1.000
    C57      C        0.83190    0.21200    0.78220    1.000
    H46      H        0.85390    0.17170    0.81210    1.000
    H47      H        0.90350    0.25150    0.78360    1.000
    H48      H        0.81860    0.18380    0.74640    1.000
    C58      C        0.58520    0.37520    0.79460    1.000
    H49      H        0.51870    0.33200    0.79020    1.000
    H50      H        0.56750    0.41330    0.76330    1.000
    H51      H        0.58280    0.40500    0.82920    1.000
    H52      H        0.82660    0.43870    0.81000    1.000
    H53      H        0.89750    0.36100    0.84170    1.000
    H54      H        0.89390    0.37140    0.77650    1.000
    Co5      Co       0.83100    0.50175    0.33422    1.000
    Co6      Co       0.01352    0.38849    0.24550    1.000
    O25      O        0.00490    0.55578    0.36100    1.000
    O26      O        0.09510    0.47270    0.30472    1.000
    O27      O        0.59360    0.47410    0.31973    1.000
    O28      O        0.70630    0.57071    0.37078    1.000
    O29      O        0.51340    0.82026    0.33371    1.000
    O30      O        0.35360    0.91070    0.31521    1.000
    O31      O        0.38660    0.02442    0.69742    1.000
    O32      O        0.29320    0.95114    0.75792    1.000
    O33      O        0.13860    0.66801    0.71922    1.000
    O34      O        0.14670    0.61269    0.63473    1.000
    O35      O        0.16580    0.31350    0.28960    1.000
    N5       N        0.30780    0.21120    0.31340    1.000
    C59      C        0.10130    0.53030    0.33929    1.000
    C60      C        0.23290    0.57370    0.35553    1.000
    C61      C        0.23770    0.65040    0.38312    1.000
    H55      H        0.15950    0.67430    0.39110    1.000
    C62      C        0.35870    0.69160    0.39884    1.000
    C63      C        0.47510    0.65410    0.38767    1.000
    H56      H        0.55660    0.68100    0.39830    1.000
    C64      C        0.47100    0.57710    0.36096    1.000
    C65      C        0.34900    0.53800    0.34376    1.000
    H57      H        0.34540    0.48750    0.32420    1.000
    C66      C        0.59680    0.53720    0.34915    1.000
    C67      C        0.36120    0.77270    0.43052    1.000
    C68      C        0.32790    0.77060    0.48411    1.000
    H58      H        0.30970    0.71910    0.49910    1.000
    C69      C        0.32030    0.84140    0.51650    1.000
    C70      C        0.34280    0.91790    0.49213    1.000
    H59      H        0.33590    0.96700    0.51230    1.000
    C71      C        0.37510    0.92210    0.43850    1.000
    H60      H        0.39020    0.97390    0.42320    1.000
    C72      C        0.38550    0.85040    0.40718    1.000
    C73      C        0.42030    0.86070    0.34783    1.000
    C74      C        0.28910    0.83510    0.57543    1.000
    C75      C        0.23590    0.76160    0.59407    1.000
    H61      H        0.21820    0.71690    0.56920    1.000
    C76      C        0.20880    0.75350    0.64887    1.000
    C77      C        0.23500    0.82110    0.68587    1.000
    H62      H        0.21600    0.81690    0.72240    1.000
    C78      C        0.28900    0.89423    0.66879    1.000
    C79      C        0.31640    0.90110    0.61403    1.000
    H63      H        0.35340    0.95030    0.60290    1.000
    C80      C        0.16020    0.67280    0.66944    1.000
    C81      C        0.32610    0.96320    0.71119    1.000
    C82      C        0.20260    0.24150    0.28960    1.000
    C83      C        0.40320    0.27250    0.33750    1.000
    H64      H        0.36640    0.32750    0.32990    1.000
    H65      H        0.42450    0.26410    0.37770    1.000
    H66      H        0.48280    0.26710    0.32110    1.000
    C84      C        0.08590    0.17740    0.26860    1.000
    H67      H        0.06880    0.17640    0.22800    1.000
    H68      H        0.11160    0.12260    0.28260    1.000
    H69      H        0.00660    0.19450    0.28240    1.000
    C85      C        0.34520    0.11980    0.30700    1.000
    H70      H        0.43130    0.10920    0.32910    1.000
    H71      H        0.34790    0.10820    0.26790    1.000
    H72      H        0.28000    0.08450    0.31990    1.000
    O36      O        0.09460    0.27590    0.27940    1.000
    N6       N        0.22490    0.16450    0.29650    1.000
    C86      C        0.33190    0.28800    0.28220    1.000
    H73      H        0.35390    0.32830    0.31210    1.000
    H74      H        0.40350    0.24850    0.28360    1.000
    H75      H        0.31860    0.31620    0.24640    1.000
    C87      C        0.08520    0.12480    0.29460    1.000
    H76      H        0.01870    0.16800    0.29020    1.000
    H77      H        0.06750    0.08670    0.26330    1.000
    H78      H        0.08280    0.09500    0.32920    1.000
    H79      H        0.32660    0.06130    0.31000    1.000
    H80      H        0.39750    0.13900    0.34170    1.000
    H81      H        0.39390    0.12860    0.27650    1.000
    Co7      Co       0.66900    0.00175    0.16578    1.000
    Co8      Co       0.48648    0.88849    0.25450    1.000
    O37      O        0.49510    0.05578    0.13900    1.000
    O38      O        0.40490    0.97270    0.19528    1.000
    O39      O        0.90640    0.97410    0.18027    1.000
    O40      O        0.79370    0.07071    0.12922    1.000
    O41      O        0.98660    0.32026    0.16629    1.000
    O42      O        0.14640    0.41070    0.18479    1.000
    O43      O        0.11340    0.52442    0.80258    1.000
    O44      O        0.20680    0.45114    0.74208    1.000
    O45      O        0.36140    0.16801    0.78078    1.000
    O46      O        0.35330    0.11269    0.86527    1.000
    O47      O        0.33420    0.81350    0.21040    1.000
    N7       N        0.19220    0.71120    0.18660    1.000
    C88      C        0.39870    0.03030    0.16071    1.000
    C89      C        0.26710    0.07370    0.14447    1.000
    C90      C        0.26230    0.15040    0.11688    1.000
    H82      H        0.34050    0.17430    0.10890    1.000
    C91      C        0.14130    0.19160    0.10116    1.000
    C92      C        0.02490    0.15410    0.11233    1.000
    H83      H        0.94340    0.18100    0.10170    1.000
    C93      C        0.02900    0.07710    0.13904    1.000
    C94      C        0.15100    0.03800    0.15624    1.000
    H84      H        0.15460    0.98750    0.17580    1.000
    C95      C        0.90320    0.03720    0.15085    1.000
    C96      C        0.13880    0.27270    0.06948    1.000
    C97      C        0.17210    0.27060    0.01589    1.000
    H85      H        0.19030    0.21910    0.00090    1.000
    C98      C        0.17970    0.34140    0.98350    1.000
    C99      C        0.15720    0.41790    0.00787    1.000
    H86      H        0.16410    0.46700    0.98770    1.000
    C100     C        0.12490    0.42210    0.06150    1.000
    H87      H        0.10980    0.47390    0.07680    1.000
    C101     C        0.11450    0.35040    0.09282    1.000
    C102     C        0.07970    0.36070    0.15217    1.000
    C103     C        0.21090    0.33510    0.92457    1.000
    C104     C        0.26410    0.26160    0.90593    1.000
    H88      H        0.28180    0.21690    0.93080    1.000
    C105     C        0.29120    0.25350    0.85113    1.000
    C106     C        0.26500    0.32110    0.81413    1.000
    H89      H        0.28400    0.31690    0.77760    1.000
    C107     C        0.21100    0.39423    0.83121    1.000
    C108     C        0.18360    0.40110    0.88597    1.000
    H90      H        0.14660    0.45030    0.89710    1.000
    C109     C        0.33980    0.17280    0.83056    1.000
    C110     C        0.17390    0.46320    0.78881    1.000
    C111     C        0.29740    0.74150    0.21040    1.000
    C112     C        0.09680    0.77250    0.16250    1.000
    H91      H        0.13360    0.82750    0.17010    1.000
    H92      H        0.07550    0.76410    0.12230    1.000
    H93      H        0.01720    0.76710    0.17890    1.000
    C113     C        0.41410    0.67740    0.23140    1.000
    H94      H        0.43120    0.67640    0.27200    1.000
    H95      H        0.38840    0.62260    0.21740    1.000
    H96      H        0.49340    0.69450    0.21760    1.000
    C114     C        0.15480    0.61980    0.19300    1.000
    H97      H        0.06870    0.60920    0.17090    1.000
    H98      H        0.15210    0.60820    0.23210    1.000
    H99      H        0.22000    0.58450    0.18010    1.000
    O48      O        0.40540    0.77590    0.22060    1.000
    N8       N        0.27510    0.66450    0.20350    1.000
    C115     C        0.16810    0.78800    0.21780    1.000
    H100     H        0.14610    0.82830    0.18790    1.000
    H101     H        0.09650    0.74850    0.21640    1.000
    H102     H        0.18140    0.81620    0.25360    1.000
    C116     C        0.41480    0.62480    0.20540    1.000
    H103     H        0.48130    0.66800    0.20980    1.000
    H104     H        0.43250    0.58670    0.23670    1.000
    H105     H        0.41720    0.59500    0.17080    1.000
    H106     H        0.17340    0.56130    0.19000    1.000
    H107     H        0.10250    0.63900    0.15830    1.000
    H108     H        0.10610    0.62860    0.22350    1.000
