# CIF file generated by openbabel 3.1.0, see https://openbabel.org
data_I
_chemical_name_common 'image0'
_cell_length_a 9.8605
_cell_length_b 29.21
_cell_length_c 10.8652
_cell_angle_alpha 90
_cell_angle_beta 92.203
_cell_angle_gamma 90
_space_group_name_H-M_alt 'P 1'
_space_group_name_Hall 'P 1'
loop_
    _symmetry_equiv_pos_as_xyz
    x,y,z
loop_
    _atom_site_label
    _atom_site_type_symbol
    _atom_site_fract_x
    _atom_site_fract_y
    _atom_site_fract_z
    _atom_site_occupancy
    C1       C        0.07490    0.34892    0.91260    1.000
    C2       C        0.98280    0.38012    0.86830    1.000
    H1       H        0.01330    0.40750    0.83560    1.000
    C3       C        0.84190    0.37174    0.87080    1.000
    H2       H        0.78100    0.39270    0.83560    1.000
    C4       C        0.79410    0.33279    0.92500    1.000
    C5       C        0.88730    0.30112    0.98270    1.000
    C6       C        0.84310    0.26445    0.05850    1.000
    C7       C        0.93540    0.23335    0.10490    1.000
    H3       H        0.90630    0.20990    0.15550    1.000
    C8       C        0.07350    0.23608    0.07740    1.000
    H4       H        0.13300    0.21340    0.10590    1.000
    C9       C        0.12130    0.27134    0.00990    1.000
    C10      C        0.03000    0.30705    0.96620    1.000
    C11      C        0.21830    0.36542    0.92030    1.000
    C12      C        0.64600    0.32248    0.90080    1.000
    C13      C        0.70250    0.26168    0.10580    1.000
    C14      C        0.26610    0.26758    0.97120    1.000
    C15      C        0.02640    0.48603    0.22870    1.000
    H5       H        0.05740    0.48240    0.31010    1.000
    C16      C        0.11730    0.48905    0.13910    1.000
    C17      C        0.26270    0.47647    0.17290    1.000
    C18      C        0.07160    0.49891    0.01430    1.000
    C19      C        0.16170    0.50630    0.91750    1.000
    C20      C        0.31040    0.51416    0.94110    1.000
    C21      C        0.11350    0.51170    0.79820    1.000
    H6       H        0.17400    0.51390    0.73490    1.000
    O1       O        0.26260    0.39038    0.83470    1.000
    O2       O        0.29090    0.35843    0.01560    1.000
    O3       O        0.56270    0.35445    0.90370    1.000
    O4       O        0.61550    0.28236    0.87000    1.000
    O5       O        0.64550    0.29649    0.14660    1.000
    O6       O        0.64440    0.22301    0.11140    1.000
    O7       O        0.28720    0.27274    0.85920    1.000
    O8       O        0.35530    0.25522    0.04920    1.000
    O9       O        0.31350    0.49080    0.27330    1.000
    O10      O        0.32230    0.44993    0.10160    1.000
    O11      O        0.34150    0.54595    0.01410    1.000
    O12      O        0.39310    0.49032    0.88390    1.000
    Y1       Y        0.45448    0.41856    0.95841    1.000
    Y2       Y        0.45957    0.25166    0.23669    1.000
    C22      C        0.92510    0.84892    0.58740    1.000
    C23      C        0.01720    0.88012    0.63170    1.000
    H7       H        0.98670    0.90750    0.66440    1.000
    C24      C        0.15810    0.87174    0.62920    1.000
    H8       H        0.21900    0.89270    0.66440    1.000
    C25      C        0.20590    0.83279    0.57500    1.000
    C26      C        0.11270    0.80112    0.51730    1.000
    C27      C        0.15690    0.76445    0.44150    1.000
    C28      C        0.06460    0.73335    0.39510    1.000
    H9       H        0.09370    0.70990    0.34450    1.000
    C29      C        0.92650    0.73608    0.42260    1.000
    H10      H        0.86700    0.71340    0.39410    1.000
    C30      C        0.87870    0.77134    0.49010    1.000
    C31      C        0.97000    0.80705    0.53380    1.000
    C32      C        0.78170    0.86542    0.57970    1.000
    C33      C        0.35400    0.82248    0.59920    1.000
    C34      C        0.29750    0.76168    0.39420    1.000
    C35      C        0.73390    0.76758    0.52880    1.000
    C36      C        0.97360    0.98603    0.27130    1.000
    H11      H        0.94260    0.98240    0.18990    1.000
    C37      C        0.88270    0.98905    0.36090    1.000
    C38      C        0.73730    0.97647    0.32710    1.000
    C39      C        0.92840    0.99891    0.48570    1.000
    C40      C        0.83830    0.00630    0.58250    1.000
    C41      C        0.68960    0.01416    0.55890    1.000
    C42      C        0.88650    0.01170    0.70180    1.000
    H12      H        0.82600    0.01390    0.76510    1.000
    O13      O        0.73740    0.89038    0.66530    1.000
    O14      O        0.70910    0.85843    0.48440    1.000
    O15      O        0.43730    0.85445    0.59630    1.000
    O16      O        0.38450    0.78236    0.63000    1.000
    O17      O        0.35450    0.79649    0.35340    1.000
    O18      O        0.35560    0.72301    0.38860    1.000
    O19      O        0.71280    0.77274    0.64080    1.000
    O20      O        0.64470    0.75522    0.45080    1.000
    O21      O        0.68650    0.99080    0.22670    1.000
    O22      O        0.67770    0.94993    0.39840    1.000
    O23      O        0.65850    0.04595    0.48590    1.000
    O24      O        0.60690    0.99032    0.61610    1.000
    Y3       Y        0.54552    0.91856    0.54159    1.000
    Y4       Y        0.54043    0.75166    0.26331    1.000
    C43      C        0.92510    0.65108    0.08740    1.000
    C44      C        0.01720    0.61988    0.13170    1.000
    H13      H        0.98670    0.59250    0.16440    1.000
    C45      C        0.15810    0.62826    0.12920    1.000
    H14      H        0.21900    0.60730    0.16440    1.000
    C46      C        0.20590    0.66721    0.07500    1.000
    C47      C        0.11270    0.69888    0.01730    1.000
    C48      C        0.15690    0.73555    0.94150    1.000
    C49      C        0.06460    0.76665    0.89510    1.000
    H15      H        0.09370    0.79010    0.84450    1.000
    C50      C        0.92650    0.76392    0.92260    1.000
    H16      H        0.86700    0.78660    0.89410    1.000
    C51      C        0.87870    0.72866    0.99010    1.000
    C52      C        0.97000    0.69295    0.03380    1.000
    C53      C        0.78170    0.63458    0.07970    1.000
    C54      C        0.35400    0.67752    0.09920    1.000
    C55      C        0.29750    0.73832    0.89420    1.000
    C56      C        0.73390    0.73242    0.02880    1.000
    C57      C        0.97360    0.51397    0.77130    1.000
    H17      H        0.94260    0.51760    0.68990    1.000
    C58      C        0.88270    0.51095    0.86090    1.000
    C59      C        0.73730    0.52353    0.82710    1.000
    C60      C        0.92840    0.50109    0.98570    1.000
    C61      C        0.83830    0.49370    0.08250    1.000
    C62      C        0.68960    0.48584    0.05890    1.000
    C63      C        0.88650    0.48830    0.20180    1.000
    H18      H        0.82600    0.48610    0.26510    1.000
    O25      O        0.73740    0.60962    0.16530    1.000
    O26      O        0.70910    0.64157    0.98440    1.000
    O27      O        0.43730    0.64555    0.09630    1.000
    O28      O        0.38450    0.71764    0.13000    1.000
    O29      O        0.35450    0.70351    0.85340    1.000
    O30      O        0.35560    0.77699    0.88860    1.000
    O31      O        0.71280    0.72726    0.14080    1.000
    O32      O        0.64470    0.74478    0.95080    1.000
    O33      O        0.68650    0.50920    0.72670    1.000
    O34      O        0.67770    0.55007    0.89840    1.000
    O35      O        0.65850    0.45405    0.98590    1.000
    O36      O        0.60690    0.50968    0.11610    1.000
    Y5       Y        0.54552    0.58144    0.04159    1.000
    Y6       Y        0.54043    0.74834    0.76331    1.000
    C64      C        0.07490    0.15108    0.41260    1.000
    C65      C        0.98280    0.11988    0.36830    1.000
    H19      H        0.01330    0.09250    0.33560    1.000
    C66      C        0.84190    0.12826    0.37080    1.000
    H20      H        0.78100    0.10730    0.33560    1.000
    C67      C        0.79410    0.16721    0.42500    1.000
    C68      C        0.88730    0.19888    0.48270    1.000
    C69      C        0.84310    0.23555    0.55850    1.000
    C70      C        0.93540    0.26665    0.60490    1.000
    H21      H        0.90630    0.29010    0.65550    1.000
    C71      C        0.07350    0.26392    0.57740    1.000
    H22      H        0.13300    0.28660    0.60590    1.000
    C72      C        0.12130    0.22866    0.50990    1.000
    C73      C        0.03000    0.19295    0.46620    1.000
    C74      C        0.21830    0.13458    0.42030    1.000
    C75      C        0.64600    0.17752    0.40080    1.000
    C76      C        0.70250    0.23832    0.60580    1.000
    C77      C        0.26610    0.23242    0.47120    1.000
    C78      C        0.02640    0.01397    0.72870    1.000
    H23      H        0.05740    0.01760    0.81010    1.000
    C79      C        0.11730    0.01095    0.63910    1.000
    C80      C        0.26270    0.02353    0.67290    1.000
    C81      C        0.07160    0.00109    0.51430    1.000
    C82      C        0.16170    0.99370    0.41750    1.000
    C83      C        0.31040    0.98584    0.44110    1.000
    C84      C        0.11350    0.98830    0.29820    1.000
    H24      H        0.17400    0.98610    0.23490    1.000
    O37      O        0.26260    0.10962    0.33470    1.000
    O38      O        0.29090    0.14157    0.51560    1.000
    O39      O        0.56270    0.14555    0.40370    1.000
    O40      O        0.61550    0.21764    0.37000    1.000
    O41      O        0.64550    0.20351    0.64660    1.000
    O42      O        0.64440    0.27699    0.61140    1.000
    O43      O        0.28720    0.22726    0.35920    1.000
    O44      O        0.35530    0.24478    0.54920    1.000
    O45      O        0.31350    0.00920    0.77330    1.000
    O46      O        0.32230    0.05007    0.60160    1.000
    O47      O        0.34150    0.95405    0.51410    1.000
    O48      O        0.39310    0.00968    0.38390    1.000
    Y7       Y        0.45448    0.08145    0.45841    1.000
    Y8       Y        0.45957    0.24834    0.73669    1.000
