# CIF file generated by openbabel 3.1.0, see https://openbabel.org
data_I
_chemical_name_common 'image0'
_cell_length_a 17.554
_cell_length_b 28.815
_cell_length_c 8.4209
_cell_angle_alpha 90
_cell_angle_beta 108.753
_cell_angle_gamma 90
_space_group_name_H-M_alt 'P 1'
_space_group_name_Hall 'P 1'
loop_
    _symmetry_equiv_pos_as_xyz
    x,y,z
loop_
    _atom_site_label
    _atom_site_type_symbol
    _atom_site_fract_x
    _atom_site_fract_y
    _atom_site_fract_z
    _atom_site_occupancy
    Co1      Co       0.32240    0.21697    0.34476    1.000
    Cl1      Cl       0.14613    0.00008    0.60507    1.000
    O1       O        0.19401    0.29419    0.92980    1.000
    O2       O        0.01838    0.28384    0.81770    1.000
    O3       O        0.29094    0.26464    0.14580    1.000
    O4       O        0.94142    0.25444    0.95890    1.000
    N1       N        0.19310    0.20123    0.21500    1.000
    N2       N        0.06050    0.19995    0.14890    1.000
    C1       C        0.14120    0.05276    0.49880    1.000
    C2       C        0.20080    0.10703    0.35850    1.000
    H1       H        0.24240    0.11560    0.31860    1.000
    C3       C        0.13380    0.13606    0.33230    1.000
    C4       C        0.20500    0.06538    0.44410    1.000
    H2       H        0.24980    0.04630    0.46450    1.000
    C5       C        0.00780    0.26043    0.93590    1.000
    C6       C        0.07810    0.23554    0.05770    1.000
    C7       C        0.07430    0.08057    0.47160    1.000
    H3       H        0.03190    0.07120    0.50770    1.000
    C8       C        0.13010    0.17956    0.23840    1.000
    C9       C        0.21840    0.26696    0.05420    1.000
    C10      C        0.07100    0.12279    0.38940    1.000
    H4       H        0.02670    0.14220    0.37270    1.000
    C11      C        0.16060    0.23602    0.10010    1.000
    Co2      Co       0.10503    0.28941    0.69993    1.000
    Cl2      Cl       0.86789    0.09290    0.91993    1.000
    O5       O        0.28479    0.26417    0.49010    1.000
    O6       O        0.35717    0.17093    0.54380    1.000
    O7       O        0.35174    0.11768    0.73180    1.000
    O8       O        0.19219    0.29758    0.57970    1.000
    N3       N        0.14570    0.21704    0.68280    1.000
    C12      C        0.25520    0.17654    0.67450    1.000
    C13      C        0.07820    0.15498    0.79580    1.000
    C14      C        0.02420    0.09714    0.93870    1.000
    H5       H        0.03120    0.07140    0.00860    1.000
    N4       N        0.21050    0.14984    0.74920    1.000
    C15      C        0.94870    0.11709    0.87020    1.000
    C16      C        0.00130    0.17331    0.72630    1.000
    H6       H        0.99320    0.19820    0.65240    1.000
    C17      C        0.93610    0.15493    0.76560    1.000
    H7       H        0.88520    0.16800    0.72200    1.000
    C18      C        0.14500    0.17476    0.74850    1.000
    C19      C        0.23270    0.26232    0.56210    1.000
    C20      C        0.21420    0.21819    0.63530    1.000
    C21      C        0.32790    0.15378    0.64860    1.000
    C22      C        0.08940    0.11630    0.90100    1.000
    H8       H        0.14030    0.10330    0.94600    1.000
    Co3      Co       0.95415    0.57246    0.76618    1.000
    Cl3      Cl       0.36760    0.59271    0.41978    1.000
    O9       O        0.90262    0.46981    0.40190    1.000
    O10      O        0.99430    0.61752    0.61760    1.000
    H9       H        0.03990    0.62640    0.66980    1.000
    O11      O        0.00516    0.38722    0.47600    1.000
    O12      O        0.08808    0.36289    0.72350    1.000
    O13      O        0.89850    0.53275    0.55040    1.000
    N5       N        0.04210    0.51584    0.78070    1.000
    C23      C        0.16910    0.51873    0.02280    1.000
    C24      C        0.28270    0.51653    0.27680    1.000
    H10      H        0.31820    0.50000    0.36460    1.000
    N6       N        0.11060    0.44986    0.84840    1.000
    C25      C        0.04820    0.44071    0.70310    1.000
    C26      C        0.29090    0.56435    0.26490    1.000
    C27      C        0.24030    0.58971    0.13450    1.000
    H11      H        0.24650    0.62170    0.12860    1.000
    C28      C        0.18020    0.56658    0.01270    1.000
    H12      H        0.14650    0.58310    0.92260    1.000
    C29      C        0.22170    0.49394    0.15730    1.000
    H13      H        0.21520    0.46210    0.16560    1.000
    C30      C        0.10610    0.49541    0.88990    1.000
    C31      C        0.93140    0.49525    0.52990    1.000
    C32      C        0.00630    0.48243    0.66320    1.000
    C33      C        0.04610    0.39377    0.62720    1.000
    Co4      Co       0.82240    0.71697    0.34476    1.000
    Cl4      Cl       0.64613    0.50008    0.60507    1.000
    O14      O        0.69401    0.79419    0.92980    1.000
    O15      O        0.51838    0.78384    0.81770    1.000
    O16      O        0.79094    0.76464    0.14580    1.000
    O17      O        0.44142    0.75444    0.95890    1.000
    N7       N        0.69310    0.70123    0.21500    1.000
    N8       N        0.56050    0.69995    0.14890    1.000
    C34      C        0.64120    0.55276    0.49880    1.000
    C35      C        0.70080    0.60703    0.35850    1.000
    H14      H        0.74240    0.61560    0.31860    1.000
    C36      C        0.63380    0.63606    0.33230    1.000
    C37      C        0.70500    0.56538    0.44410    1.000
    H15      H        0.74980    0.54630    0.46450    1.000
    C38      C        0.50780    0.76043    0.93590    1.000
    C39      C        0.57810    0.73554    0.05770    1.000
    C40      C        0.57430    0.58057    0.47160    1.000
    H16      H        0.53190    0.57120    0.50770    1.000
    C41      C        0.63010    0.67956    0.23840    1.000
    C42      C        0.71840    0.76696    0.05420    1.000
    C43      C        0.57100    0.62279    0.38940    1.000
    H17      H        0.52670    0.64220    0.37270    1.000
    C44      C        0.66060    0.73602    0.10010    1.000
    Co5      Co       0.60503    0.78941    0.69993    1.000
    Cl5      Cl       0.36789    0.59290    0.91993    1.000
    O18      O        0.78479    0.76417    0.49010    1.000
    O19      O        0.85717    0.67093    0.54380    1.000
    O20      O        0.85174    0.61768    0.73180    1.000
    O21      O        0.69219    0.79758    0.57970    1.000
    N9       N        0.64570    0.71704    0.68280    1.000
    C45      C        0.75520    0.67654    0.67450    1.000
    C46      C        0.57820    0.65498    0.79580    1.000
    C47      C        0.52420    0.59714    0.93870    1.000
    H18      H        0.53120    0.57140    0.00860    1.000
    N10      N        0.71050    0.64984    0.74920    1.000
    C48      C        0.44870    0.61709    0.87020    1.000
    C49      C        0.50130    0.67331    0.72630    1.000
    H19      H        0.49320    0.69820    0.65240    1.000
    C50      C        0.43610    0.65493    0.76560    1.000
    H20      H        0.38520    0.66800    0.72200    1.000
    C51      C        0.64500    0.67476    0.74850    1.000
    C52      C        0.73270    0.76232    0.56210    1.000
    C53      C        0.71420    0.71819    0.63530    1.000
    C54      C        0.82790    0.65378    0.64860    1.000
    C55      C        0.58940    0.61630    0.90100    1.000
    H21      H        0.64030    0.60330    0.94600    1.000
    Co6      Co       0.45415    0.07246    0.76618    1.000
    Cl6      Cl       0.86760    0.09271    0.41978    1.000
    O22      O        0.40262    0.96981    0.40190    1.000
    O23      O        0.49430    0.11752    0.61760    1.000
    H22      H        0.53990    0.12640    0.66980    1.000
    O24      O        0.50516    0.88722    0.47600    1.000
    O25      O        0.58808    0.86289    0.72350    1.000
    O26      O        0.39850    0.03275    0.55040    1.000
    N11      N        0.54210    0.01584    0.78070    1.000
    C56      C        0.66910    0.01873    0.02280    1.000
    C57      C        0.78270    0.01653    0.27680    1.000
    H23      H        0.81820    0.00000    0.36460    1.000
    N12      N        0.61060    0.94986    0.84840    1.000
    C58      C        0.54820    0.94071    0.70310    1.000
    C59      C        0.79090    0.06435    0.26490    1.000
    C60      C        0.74030    0.08971    0.13450    1.000
    H24      H        0.74650    0.12170    0.12860    1.000
    C61      C        0.68020    0.06658    0.01270    1.000
    H25      H        0.64650    0.08310    0.92260    1.000
    C62      C        0.72170    0.99394    0.15730    1.000
    H26      H        0.71520    0.96210    0.16560    1.000
    C63      C        0.60610    0.99541    0.88990    1.000
    C64      C        0.43140    0.99525    0.52990    1.000
    C65      C        0.50630    0.98243    0.66320    1.000
    C66      C        0.54610    0.89377    0.62720    1.000
    Co7      Co       0.32240    0.78303    0.84476    1.000
    Cl7      Cl       0.14613    0.99992    0.10507    1.000
    O27      O        0.19401    0.70581    0.42980    1.000
    O28      O        0.01838    0.71616    0.31770    1.000
    O29      O        0.29094    0.73536    0.64580    1.000
    O30      O        0.94142    0.74556    0.45890    1.000
    N13      N        0.19310    0.79877    0.71500    1.000
    N14      N        0.06050    0.80005    0.64890    1.000
    C67      C        0.14120    0.94724    0.99880    1.000
    C68      C        0.20080    0.89297    0.85850    1.000
    H27      H        0.24240    0.88440    0.81860    1.000
    C69      C        0.13380    0.86394    0.83230    1.000
    C70      C        0.20500    0.93462    0.94410    1.000
    H28      H        0.24980    0.95370    0.96450    1.000
    C71      C        0.00780    0.73957    0.43590    1.000
    C72      C        0.07810    0.76446    0.55770    1.000
    C73      C        0.07430    0.91943    0.97160    1.000
    H29      H        0.03190    0.92880    0.00770    1.000
    C74      C        0.13010    0.82044    0.73840    1.000
    C75      C        0.21840    0.73304    0.55420    1.000
    C76      C        0.07100    0.87721    0.88940    1.000
    H30      H        0.02670    0.85780    0.87270    1.000
    C77      C        0.16060    0.76398    0.60010    1.000
    Co8      Co       0.10503    0.71059    0.19993    1.000
    Cl8      Cl       0.86789    0.90710    0.41993    1.000
    O31      O        0.28479    0.73583    0.99010    1.000
    O32      O        0.35717    0.82907    0.04380    1.000
    O33      O        0.35174    0.88232    0.23180    1.000
    O34      O        0.19219    0.70242    0.07970    1.000
    N15      N        0.14570    0.78296    0.18280    1.000
    C78      C        0.25520    0.82346    0.17450    1.000
    C79      C        0.07820    0.84502    0.29580    1.000
    C80      C        0.02420    0.90286    0.43870    1.000
    H31      H        0.03120    0.92860    0.50860    1.000
    N16      N        0.21050    0.85016    0.24920    1.000
    C81      C        0.94870    0.88291    0.37020    1.000
    C82      C        0.00130    0.82669    0.22630    1.000
    H32      H        0.99320    0.80180    0.15240    1.000
    C83      C        0.93610    0.84507    0.26560    1.000
    H33      H        0.88520    0.83200    0.22200    1.000
    C84      C        0.14500    0.82524    0.24850    1.000
    C85      C        0.23270    0.73768    0.06210    1.000
    C86      C        0.21420    0.78181    0.13530    1.000
    C87      C        0.32790    0.84622    0.14860    1.000
    C88      C        0.08940    0.88370    0.40100    1.000
    H34      H        0.14030    0.89670    0.44600    1.000
    Co9      Co       0.95415    0.42754    0.26618    1.000
    Cl9      Cl       0.36760    0.40729    0.91978    1.000
    O35      O        0.90262    0.53019    0.90190    1.000
    O36      O        0.99430    0.38248    0.11760    1.000
    H35      H        0.03990    0.37360    0.16980    1.000
    O37      O        0.00516    0.61278    0.97600    1.000
    O38      O        0.08808    0.63711    0.22350    1.000
    O39      O        0.89850    0.46725    0.05040    1.000
    N17      N        0.04210    0.48416    0.28070    1.000
    C89      C        0.16910    0.48127    0.52280    1.000
    C90      C        0.28270    0.48347    0.77680    1.000
    H36      H        0.31820    0.50000    0.86460    1.000
    N18      N        0.11060    0.55014    0.34840    1.000
    C91      C        0.04820    0.55929    0.20310    1.000
    C92      C        0.29090    0.43565    0.76490    1.000
    C93      C        0.24030    0.41029    0.63450    1.000
    H37      H        0.24650    0.37830    0.62860    1.000
    C94      C        0.18020    0.43342    0.51270    1.000
    H38      H        0.14650    0.41690    0.42260    1.000
    C95      C        0.22170    0.50606    0.65730    1.000
    H39      H        0.21520    0.53790    0.66560    1.000
    C96      C        0.10610    0.50459    0.38990    1.000
    C97      C        0.93140    0.50475    0.02990    1.000
    C98      C        0.00630    0.51757    0.16320    1.000
    C99      C        0.04610    0.60623    0.12720    1.000
    Co10     Co       0.82240    0.28303    0.84476    1.000
    Cl10     Cl       0.64613    0.49992    0.10507    1.000
    O40      O        0.69401    0.20581    0.42980    1.000
    O41      O        0.51838    0.21616    0.31770    1.000
    O42      O        0.79094    0.23536    0.64580    1.000
    O43      O        0.44142    0.24556    0.45890    1.000
    N19      N        0.69310    0.29877    0.71500    1.000
    N20      N        0.56050    0.30005    0.64890    1.000
    C100     C        0.64120    0.44724    0.99880    1.000
    C101     C        0.70080    0.39297    0.85850    1.000
    H40      H        0.74240    0.38440    0.81860    1.000
    C102     C        0.63380    0.36394    0.83230    1.000
    C103     C        0.70500    0.43462    0.94410    1.000
    H41      H        0.74980    0.45370    0.96450    1.000
    C104     C        0.50780    0.23957    0.43590    1.000
    C105     C        0.57810    0.26446    0.55770    1.000
    C106     C        0.57430    0.41943    0.97160    1.000
    H42      H        0.53190    0.42880    0.00770    1.000
    C107     C        0.63010    0.32044    0.73840    1.000
    C108     C        0.71840    0.23304    0.55420    1.000
    C109     C        0.57100    0.37721    0.88940    1.000
    H43      H        0.52670    0.35780    0.87270    1.000
    C110     C        0.66060    0.26398    0.60010    1.000
    Co11     Co       0.60503    0.21059    0.19993    1.000
    Cl11     Cl       0.36789    0.40710    0.41993    1.000
    O44      O        0.78479    0.23583    0.99010    1.000
    O45      O        0.85717    0.32907    0.04380    1.000
    O46      O        0.85174    0.38232    0.23180    1.000
    O47      O        0.69219    0.20242    0.07970    1.000
    N21      N        0.64570    0.28296    0.18280    1.000
    C111     C        0.75520    0.32346    0.17450    1.000
    C112     C        0.57820    0.34502    0.29580    1.000
    C113     C        0.52420    0.40286    0.43870    1.000
    H44      H        0.53120    0.42860    0.50860    1.000
    N22      N        0.71050    0.35016    0.24920    1.000
    C114     C        0.44870    0.38291    0.37020    1.000
    C115     C        0.50130    0.32669    0.22630    1.000
    H45      H        0.49320    0.30180    0.15240    1.000
    C116     C        0.43610    0.34507    0.26560    1.000
    H46      H        0.38520    0.33200    0.22200    1.000
    C117     C        0.64500    0.32524    0.24850    1.000
    C118     C        0.73270    0.23768    0.06210    1.000
    C119     C        0.71420    0.28181    0.13530    1.000
    C120     C        0.82790    0.34622    0.14860    1.000
    C121     C        0.58940    0.38370    0.40100    1.000
    H47      H        0.64030    0.39670    0.44600    1.000
    Co12     Co       0.45415    0.92754    0.26618    1.000
    Cl12     Cl       0.86760    0.90729    0.91978    1.000
    O48      O        0.40262    0.03019    0.90190    1.000
    O49      O        0.49430    0.88248    0.11760    1.000
    H48      H        0.53990    0.87360    0.16980    1.000
    O50      O        0.50516    0.11278    0.97600    1.000
    O51      O        0.58808    0.13711    0.22350    1.000
    O52      O        0.39850    0.96725    0.05040    1.000
    N23      N        0.54210    0.98416    0.28070    1.000
    C122     C        0.66910    0.98127    0.52280    1.000
    C123     C        0.78270    0.98347    0.77680    1.000
    H49      H        0.81820    0.00000    0.86460    1.000
    N24      N        0.61060    0.05014    0.34840    1.000
    C124     C        0.54820    0.05929    0.20310    1.000
    C125     C        0.79090    0.93565    0.76490    1.000
    C126     C        0.74030    0.91029    0.63450    1.000
    H50      H        0.74650    0.87830    0.62860    1.000
    C127     C        0.68020    0.93342    0.51270    1.000
    H51      H        0.64650    0.91690    0.42260    1.000
    C128     C        0.72170    0.00606    0.65730    1.000
    H52      H        0.71520    0.03790    0.66560    1.000
    C129     C        0.60610    0.00459    0.38990    1.000
    C130     C        0.43140    0.00475    0.02990    1.000
    C131     C        0.50630    0.01757    0.16320    1.000
    C132     C        0.54610    0.10623    0.12720    1.000
