# CIF file generated by openbabel 3.1.0, see https://openbabel.org
data_I
_chemical_name_common 'image0'
_cell_length_a 22.249
_cell_length_b 7.0528
_cell_length_c 13.5747
_cell_angle_alpha 90
_cell_angle_beta 90
_cell_angle_gamma 90
_space_group_name_H-M_alt 'P 1'
_space_group_name_Hall 'P 1'
loop_
    _symmetry_equiv_pos_as_xyz
    x,y,z
loop_
    _atom_site_label
    _atom_site_type_symbol
    _atom_site_fract_x
    _atom_site_fract_y
    _atom_site_fract_z
    _atom_site_occupancy
    N1       N        0.43663    0.65620    0.56569    1.000
    N2       N        0.38905    0.59290    0.61290    1.000
    C1       C        0.27700    0.58180    0.72500    1.000
    H1       H        0.29520    0.46700    0.70920    1.000
    N3       N        0.93663    0.15620    0.06569    1.000
    N4       N        0.88905    0.09290    0.11290    1.000
    C2       C        0.77700    0.08180    0.22500    1.000
    H2       H        0.79520    0.96700    0.20920    1.000
    N5       N        0.56337    0.84380    0.56569    1.000
    N6       N        0.61095    0.90710    0.61290    1.000
    C3       C        0.72300    0.91820    0.72500    1.000
    H3       H        0.70480    0.03300    0.70920    1.000
    N7       N        0.06337    0.34380    0.06569    1.000
    N8       N        0.11095    0.40710    0.11290    1.000
    C4       C        0.22300    0.41820    0.22500    1.000
    H4       H        0.20480    0.53300    0.20920    1.000
    N9       N        0.56337    0.15620    0.43431    1.000
    N10      N        0.61095    0.09290    0.38710    1.000
    C5       C        0.72300    0.08180    0.27500    1.000
    H5       H        0.70480    0.96700    0.29080    1.000
    N11      N        0.06337    0.65620    0.93431    1.000
    N12      N        0.11095    0.59290    0.88710    1.000
    C6       C        0.22300    0.58180    0.77500    1.000
    H6       H        0.20480    0.46700    0.79080    1.000
    N13      N        0.43663    0.34380    0.43431    1.000
    N14      N        0.38905    0.40710    0.38710    1.000
    C7       C        0.27700    0.41820    0.27500    1.000
    H7       H        0.29520    0.53300    0.29080    1.000
    N15      N        0.93663    0.84380    0.93431    1.000
    N16      N        0.88905    0.90710    0.88710    1.000
    C8       C        0.77700    0.91820    0.77500    1.000
    H8       H        0.79520    0.03300    0.79080    1.000
    N17      N        0.56337    0.34380    0.43431    1.000
    N18      N        0.61095    0.40710    0.38710    1.000
    C9       C        0.72300    0.41820    0.27500    1.000
    H9       H        0.70480    0.53300    0.29080    1.000
    N19      N        0.06337    0.84380    0.93431    1.000
    N20      N        0.11095    0.90710    0.88710    1.000
    C10      C        0.22300    0.91820    0.77500    1.000
    H10      H        0.20480    0.03300    0.79080    1.000
    N21      N        0.43663    0.15620    0.43431    1.000
    N22      N        0.38905    0.09290    0.38710    1.000
    C11      C        0.27700    0.08180    0.27500    1.000
    H11      H        0.29520    0.96700    0.29080    1.000
    N23      N        0.93663    0.65620    0.93431    1.000
    N24      N        0.88905    0.59290    0.88710    1.000
    C12      C        0.77700    0.58180    0.77500    1.000
    H12      H        0.79520    0.46700    0.79080    1.000
    N25      N        0.43663    0.84380    0.56569    1.000
    N26      N        0.38905    0.90710    0.61290    1.000
    C13      C        0.27700    0.91820    0.72500    1.000
    H13      H        0.29520    0.03300    0.70920    1.000
    N27      N        0.93663    0.34380    0.06569    1.000
    N28      N        0.88905    0.40710    0.11290    1.000
    C14      C        0.77700    0.41820    0.22500    1.000
    H14      H        0.79520    0.53300    0.20920    1.000
    N29      N        0.56337    0.65620    0.56569    1.000
    N30      N        0.61095    0.59290    0.61290    1.000
    C15      C        0.72300    0.58180    0.72500    1.000
    H15      H        0.70480    0.46700    0.70920    1.000
    N31      N        0.06337    0.15620    0.06569    1.000
    N32      N        0.11095    0.09290    0.11290    1.000
    C16      C        0.22300    0.08180    0.22500    1.000
    H16      H        0.20480    0.96700    0.20920    1.000
    Cu1      Cu       0.50000    0.50000    0.50000    1.000
    Cu2      Cu       0.00000    0.00000    0.00000    1.000
    Cu3      Cu       0.50000    0.00000    0.50000    1.000
    Cu4      Cu       0.00000    0.50000    0.00000    1.000
    C17      C        0.36090    0.75000    0.64170    1.000
    C18      C        0.30460    0.75000    0.69800    1.000
    C19      C        0.86090    0.25000    0.14170    1.000
    C20      C        0.80460    0.25000    0.19800    1.000
    C21      C        0.63910    0.75000    0.64170    1.000
    C22      C        0.69540    0.75000    0.69800    1.000
    C23      C        0.13910    0.25000    0.14170    1.000
    C24      C        0.19540    0.25000    0.19800    1.000
    C25      C        0.63910    0.25000    0.35830    1.000
    C26      C        0.69540    0.25000    0.30200    1.000
    C27      C        0.13910    0.75000    0.85830    1.000
    C28      C        0.19540    0.75000    0.80200    1.000
    C29      C        0.36090    0.25000    0.35830    1.000
    C30      C        0.30460    0.25000    0.30200    1.000
    C31      C        0.86090    0.75000    0.85830    1.000
    C32      C        0.80460    0.75000    0.80200    1.000
