# CIF file generated by openbabel 3.1.0, see https://openbabel.org
data_I
_chemical_name_common 'image0'
_cell_length_a 12.109
_cell_length_b 9.209
_cell_length_c 16.081
_cell_angle_alpha 90
_cell_angle_beta 92.94
_cell_angle_gamma 90
_space_group_name_H-M_alt 'P 1'
_space_group_name_Hall 'P 1'
loop_
    _symmetry_equiv_pos_as_xyz
    x,y,z
loop_
    _atom_site_label
    _atom_site_type_symbol
    _atom_site_fract_x
    _atom_site_fract_y
    _atom_site_fract_z
    _atom_site_occupancy
    Zn1      Zn       0.00784    0.75695    0.79829    1.000
    Zn2      Zn       0.22118    0.75196    0.58678    1.000
    Zn3      Zn       0.23040    0.67382    0.99901    1.000
    P1       P        0.96237    0.83520    0.60530    1.000
    H1       H        0.96400    0.96000    0.56700    1.000
    P2       P        0.85636    0.62580    0.93653    1.000
    H2       H        0.94200    0.66300    0.98300    1.000
    P3       P        0.13742    0.96920    0.93287    1.000
    H3       H        0.07400    0.07400    0.95900    1.000
    P4       P        0.20440    0.52630    0.81517    1.000
    H4       H        0.27100    0.55000    0.75500    1.000
    O1       O        0.06350    0.75480    0.58430    1.000
    O2       O        0.94390    0.83930    0.69610    1.000
    O3       O        0.08900    0.57610    0.78690    1.000
    O4       O        0.08100    0.90960    0.85550    1.000
    O5       O        0.87620    0.68750    0.85040    1.000
    O6       O        0.75510    0.69810    0.97090    1.000
    O7       O        0.19990    0.36470    0.82990    1.000
    O8       O        0.24290    0.04550    0.91480    1.000
    O9       O        0.15310    0.85810    0.00220    1.000
    O10      O        0.86610    0.76260    0.55640    1.000
    O11      O        0.84730    0.46210    0.93550    1.000
    O12      O        0.25570    0.61090    0.88720    1.000
    Zn4      Zn       0.49216    0.25695    0.70171    1.000
    Zn5      Zn       0.27882    0.25196    0.91322    1.000
    Zn6      Zn       0.26960    0.17382    0.50099    1.000
    P5       P        0.53763    0.33520    0.89470    1.000
    H5       H        0.53600    0.46000    0.93300    1.000
    P6       P        0.64364    0.12580    0.56347    1.000
    H6       H        0.55800    0.16300    0.51700    1.000
    P7       P        0.36258    0.46920    0.56713    1.000
    H7       H        0.42600    0.57400    0.54100    1.000
    P8       P        0.29560    0.02630    0.68483    1.000
    H8       H        0.22900    0.05000    0.74500    1.000
    O13      O        0.43650    0.25480    0.91570    1.000
    O14      O        0.55610    0.33930    0.80390    1.000
    O15      O        0.41100    0.07610    0.71310    1.000
    O16      O        0.41900    0.40960    0.64450    1.000
    O17      O        0.62380    0.18750    0.64960    1.000
    O18      O        0.74490    0.19810    0.52910    1.000
    O19      O        0.30010    0.86470    0.67010    1.000
    O20      O        0.25710    0.54550    0.58520    1.000
    O21      O        0.34690    0.35810    0.49780    1.000
    O22      O        0.63390    0.26260    0.94360    1.000
    O23      O        0.65270    0.96210    0.56450    1.000
    O24      O        0.24430    0.11090    0.61280    1.000
    Zn7      Zn       0.99216    0.24305    0.20171    1.000
    Zn8      Zn       0.77882    0.24804    0.41322    1.000
    Zn9      Zn       0.76960    0.32618    0.00099    1.000
    P9       P        0.03763    0.16480    0.39470    1.000
    H9       H        0.03600    0.04000    0.43300    1.000
    P10      P        0.14364    0.37420    0.06347    1.000
    H10      H        0.05800    0.33700    0.01700    1.000
    P11      P        0.86258    0.03080    0.06713    1.000
    H11      H        0.92600    0.92600    0.04100    1.000
    P12      P        0.79560    0.47370    0.18483    1.000
    H12      H        0.72900    0.45000    0.24500    1.000
    O25      O        0.93650    0.24520    0.41570    1.000
    O26      O        0.05610    0.16070    0.30390    1.000
    O27      O        0.91100    0.42390    0.21310    1.000
    O28      O        0.91900    0.09040    0.14450    1.000
    O29      O        0.12380    0.31250    0.14960    1.000
    O30      O        0.24490    0.30190    0.02910    1.000
    O31      O        0.80010    0.63530    0.17010    1.000
    O32      O        0.75710    0.95450    0.08520    1.000
    O33      O        0.84690    0.14190    0.99780    1.000
    O34      O        0.13390    0.23740    0.44360    1.000
    O35      O        0.15270    0.53790    0.06450    1.000
    O36      O        0.74430    0.38910    0.11280    1.000
    Zn10     Zn       0.50784    0.74305    0.29829    1.000
    Zn11     Zn       0.72118    0.74804    0.08678    1.000
    Zn12     Zn       0.73040    0.82618    0.49901    1.000
    P13      P        0.46237    0.66480    0.10530    1.000
    H13      H        0.46400    0.54000    0.06700    1.000
    P14      P        0.35636    0.87420    0.43653    1.000
    H14      H        0.44200    0.83700    0.48300    1.000
    P15      P        0.63742    0.53080    0.43287    1.000
    H15      H        0.57400    0.42600    0.45900    1.000
    P16      P        0.70440    0.97370    0.31517    1.000
    H16      H        0.77100    0.95000    0.25500    1.000
    O37      O        0.56350    0.74520    0.08430    1.000
    O38      O        0.44390    0.66070    0.19610    1.000
    O39      O        0.58900    0.92390    0.28690    1.000
    O40      O        0.58100    0.59040    0.35550    1.000
    O41      O        0.37620    0.81250    0.35040    1.000
    O42      O        0.25510    0.80190    0.47090    1.000
    O43      O        0.69990    0.13530    0.32990    1.000
    O44      O        0.74290    0.45450    0.41480    1.000
    O45      O        0.65310    0.64190    0.50220    1.000
    O46      O        0.36610    0.73740    0.05640    1.000
    O47      O        0.34730    0.03790    0.43550    1.000
    O48      O        0.75570    0.88910    0.38720    1.000
