# CIF file generated by openbabel 3.1.0, see https://openbabel.org
data_I
_chemical_name_common 'KINLAW_clean'
_cell_length_a 8.733
_cell_length_b 16.283
_cell_length_c 22.98
_cell_angle_alpha 90
_cell_angle_beta 90
_cell_angle_gamma 90
_space_group_name_H-M_alt 'P 1'
_space_group_name_Hall 'P 1'
loop_
    _symmetry_equiv_pos_as_xyz
    x,y,z
loop_
    _atom_site_label
    _atom_site_type_symbol
    _atom_site_fract_x
    _atom_site_fract_y
    _atom_site_fract_z
    _atom_site_occupancy
    Co1      Co       0.72887    0.75000    0.75000    1.000
    Co2      Co       0.77113    0.75000    0.25000    1.000
    Co3      Co       0.27113    0.25000    0.25000    1.000
    Co4      Co       0.22887    0.25000    0.75000    1.000
    H1       H        0.61020    0.56950    0.68950    1.000
    H2       H        0.42650    0.48030    0.74020    1.000
    H3       H        0.46900    0.69070    0.82880    1.000
    H4       H        0.22060    0.66380    0.86390    1.000
    H5       H        0.07530    0.62370    0.94410    1.000
    H6       H        0.19130    0.38790    0.91480    1.000
    H7       H        0.34500    0.42800    0.83680    1.000
    H8       H        0.13650    0.58960    0.66050    1.000
    H9       H        0.88010    0.74240    0.56180    1.000
    H10      H        0.88980    0.56950    0.31050    1.000
    H11      H        0.07350    0.48030    0.25980    1.000
    H12      H        0.03100    0.69070    0.17120    1.000
    H13      H        0.27940    0.66380    0.13610    1.000
    H14      H        0.42470    0.62370    0.05590    1.000
    H15      H        0.30870    0.38790    0.08520    1.000
    H16      H        0.15500    0.42800    0.16320    1.000
    H17      H        0.36350    0.58960    0.33950    1.000
    H18      H        0.61990    0.74240    0.43820    1.000
    H19      H        0.88980    0.93050    0.18950    1.000
    H20      H        0.07350    0.01970    0.24020    1.000
    H21      H        0.03100    0.80930    0.32880    1.000
    H22      H        0.27940    0.83620    0.36390    1.000
    H23      H        0.42470    0.87630    0.44410    1.000
    H24      H        0.30870    0.11210    0.41480    1.000
    H25      H        0.15500    0.07200    0.33680    1.000
    H26      H        0.36350    0.91040    0.16050    1.000
    H27      H        0.61990    0.75760    0.06180    1.000
    H28      H        0.61020    0.93050    0.81050    1.000
    H29      H        0.42650    0.01970    0.75980    1.000
    H30      H        0.46900    0.80930    0.67120    1.000
    H31      H        0.22060    0.83620    0.63610    1.000
    H32      H        0.07530    0.87630    0.55590    1.000
    H33      H        0.19130    0.11210    0.58520    1.000
    H34      H        0.34500    0.07200    0.66320    1.000
    H35      H        0.13650    0.91040    0.83950    1.000
    H36      H        0.88010    0.75760    0.93820    1.000
    H37      H        0.38980    0.43050    0.31050    1.000
    H38      H        0.57350    0.51970    0.25980    1.000
    H39      H        0.53100    0.30930    0.17120    1.000
    H40      H        0.77940    0.33620    0.13610    1.000
    H41      H        0.92470    0.37630    0.05590    1.000
    H42      H        0.80870    0.61210    0.08520    1.000
    H43      H        0.65500    0.57200    0.16320    1.000
    H44      H        0.86350    0.41040    0.33950    1.000
    H45      H        0.11990    0.25760    0.43820    1.000
    H46      H        0.11020    0.43050    0.68950    1.000
    H47      H        0.92650    0.51970    0.74020    1.000
    H48      H        0.96900    0.30930    0.82880    1.000
    H49      H        0.72060    0.33620    0.86390    1.000
    H50      H        0.57530    0.37630    0.94410    1.000
    H51      H        0.69130    0.61210    0.91480    1.000
    H52      H        0.84500    0.57200    0.83680    1.000
    H53      H        0.63650    0.41040    0.66050    1.000
    H54      H        0.38010    0.25760    0.56180    1.000
    H55      H        0.11020    0.06950    0.81050    1.000
    H56      H        0.92650    0.98030    0.75980    1.000
    H57      H        0.96900    0.19070    0.67120    1.000
    H58      H        0.72060    0.16380    0.63610    1.000
    H59      H        0.57530    0.12370    0.55590    1.000
    H60      H        0.69130    0.88790    0.58520    1.000
    H61      H        0.84500    0.92800    0.66320    1.000
    H62      H        0.63650    0.08960    0.83950    1.000
    H63      H        0.38010    0.24240    0.93820    1.000
    H64      H        0.38980    0.06950    0.18950    1.000
    H65      H        0.57350    0.98030    0.24020    1.000
    H66      H        0.53100    0.19070    0.32880    1.000
    H67      H        0.77940    0.16380    0.36390    1.000
    H68      H        0.92470    0.12370    0.44410    1.000
    H69      H        0.80870    0.88790    0.41480    1.000
    H70      H        0.65500    0.92800    0.33680    1.000
    H71      H        0.86350    0.08960    0.16050    1.000
    H72      H        0.11990    0.24240    0.06180    1.000
    C1       C        0.55820    0.58260    0.72460    1.000
    C2       C        0.45660    0.53390    0.75180    1.000
    C3       C        0.48130    0.64920    0.80020    1.000
    C4       C        0.30100    0.55010    0.84430    1.000
    C5       C        0.21740    0.60770    0.87500    1.000
    C6       C        0.12910    0.58370    0.92200    1.000
    C7       C        0.11900    0.50200    0.93670    1.000
    C8       C        0.19900    0.44440    0.90490    1.000
    C9       C        0.29020    0.46800    0.85860    1.000
    C10      C        0.89730    0.69240    0.67140    1.000
    C11      C        0.99520    0.67170    0.61990    1.000
    C12      C        0.11750    0.61690    0.62470    1.000
    C13      C        0.21140    0.60270    0.57690    1.000
    C14      C        0.19250    0.64320    0.52460    1.000
    C15      C        0.06300    0.69230    0.52060    1.000
    C16      C        0.96630    0.70750    0.56670    1.000
    C17      C        0.94180    0.58260    0.27540    1.000
    C18      C        0.04340    0.53390    0.24820    1.000
    C19      C        0.01870    0.64920    0.19980    1.000
    C20      C        0.19900    0.55010    0.15570    1.000
    C21      C        0.28260    0.60770    0.12500    1.000
    C22      C        0.37090    0.58370    0.07800    1.000
    C23      C        0.38100    0.50200    0.06330    1.000
    C24      C        0.30100    0.44440    0.09510    1.000
    C25      C        0.20980    0.46800    0.14140    1.000
    C26      C        0.60270    0.69240    0.32860    1.000
    C27      C        0.50480    0.67170    0.38010    1.000
    C28      C        0.38250    0.61690    0.37530    1.000
    C29      C        0.28860    0.60270    0.42310    1.000
    C30      C        0.30750    0.64320    0.47540    1.000
    C31      C        0.43700    0.69230    0.47940    1.000
    C32      C        0.53370    0.70750    0.43330    1.000
    C33      C        0.94180    0.91740    0.22460    1.000
    C34      C        0.04340    0.96610    0.25180    1.000
    C35      C        0.01870    0.85080    0.30020    1.000
    C36      C        0.19900    0.94990    0.34430    1.000
    C37      C        0.28260    0.89230    0.37500    1.000
    C38      C        0.37090    0.91630    0.42200    1.000
    C39      C        0.38100    0.99800    0.43670    1.000
    C40      C        0.30100    0.05560    0.40490    1.000
    C41      C        0.20980    0.03200    0.35860    1.000
    C42      C        0.60270    0.80760    0.17140    1.000
    C43      C        0.50480    0.82830    0.11990    1.000
    C44      C        0.38250    0.88310    0.12470    1.000
    C45      C        0.28860    0.89730    0.07690    1.000
    C46      C        0.30750    0.85680    0.02460    1.000
    C47      C        0.43700    0.80770    0.02060    1.000
    C48      C        0.53370    0.79250    0.06670    1.000
    C49      C        0.55820    0.91740    0.77540    1.000
    C50      C        0.45660    0.96610    0.74820    1.000
    C51      C        0.48130    0.85080    0.69980    1.000
    C52      C        0.30100    0.94990    0.65570    1.000
    C53      C        0.21740    0.89230    0.62500    1.000
    C54      C        0.12910    0.91630    0.57800    1.000
    C55      C        0.11900    0.99800    0.56330    1.000
    C56      C        0.19900    0.05560    0.59510    1.000
    C57      C        0.29020    0.03200    0.64140    1.000
    C58      C        0.89730    0.80760    0.82860    1.000
    C59      C        0.99520    0.82830    0.88010    1.000
    C60      C        0.11750    0.88310    0.87530    1.000
    C61      C        0.21140    0.89730    0.92310    1.000
    C62      C        0.19250    0.85680    0.97540    1.000
    C63      C        0.06300    0.80770    0.97940    1.000
    C64      C        0.96630    0.79250    0.93330    1.000
    C65      C        0.44180    0.41740    0.27540    1.000
    C66      C        0.54340    0.46610    0.24820    1.000
    C67      C        0.51870    0.35080    0.19980    1.000
    C68      C        0.69900    0.44990    0.15570    1.000
    C69      C        0.78260    0.39230    0.12500    1.000
    C70      C        0.87090    0.41630    0.07800    1.000
    C71      C        0.88100    0.49800    0.06330    1.000
    C72      C        0.80100    0.55560    0.09510    1.000
    C73      C        0.70980    0.53200    0.14140    1.000
    C74      C        0.10270    0.30760    0.32860    1.000
    C75      C        0.00480    0.32830    0.38010    1.000
    C76      C        0.88250    0.38310    0.37530    1.000
    C77      C        0.78860    0.39730    0.42310    1.000
    C78      C        0.80750    0.35680    0.47540    1.000
    C79      C        0.93700    0.30770    0.47940    1.000
    C80      C        0.03370    0.29250    0.43330    1.000
    C81      C        0.05820    0.41740    0.72460    1.000
    C82      C        0.95660    0.46610    0.75180    1.000
    C83      C        0.98130    0.35080    0.80020    1.000
    C84      C        0.80100    0.44990    0.84430    1.000
    C85      C        0.71740    0.39230    0.87500    1.000
    C86      C        0.62910    0.41630    0.92200    1.000
    C87      C        0.61900    0.49800    0.93670    1.000
    C88      C        0.69900    0.55560    0.90490    1.000
    C89      C        0.79020    0.53200    0.85860    1.000
    C90      C        0.39730    0.30760    0.67140    1.000
    C91      C        0.49520    0.32830    0.61990    1.000
    C92      C        0.61750    0.38310    0.62470    1.000
    C93      C        0.71140    0.39730    0.57690    1.000
    C94      C        0.69250    0.35680    0.52460    1.000
    C95      C        0.56300    0.30770    0.52060    1.000
    C96      C        0.46630    0.29250    0.56670    1.000
    C97      C        0.05820    0.08260    0.77540    1.000
    C98      C        0.95660    0.03390    0.74820    1.000
    C99      C        0.98130    0.14920    0.69980    1.000
    C100     C        0.80100    0.05010    0.65570    1.000
    C101     C        0.71740    0.10770    0.62500    1.000
    C102     C        0.62910    0.08370    0.57800    1.000
    C103     C        0.61900    0.00200    0.56330    1.000
    C104     C        0.69900    0.94440    0.59510    1.000
    C105     C        0.79020    0.96800    0.64140    1.000
    C106     C        0.39730    0.19240    0.82860    1.000
    C107     C        0.49520    0.17170    0.88010    1.000
    C108     C        0.61750    0.11690    0.87530    1.000
    C109     C        0.71140    0.10270    0.92310    1.000
    C110     C        0.69250    0.14320    0.97540    1.000
    C111     C        0.56300    0.19230    0.97940    1.000
    C112     C        0.46630    0.20750    0.93330    1.000
    C113     C        0.44180    0.08260    0.22460    1.000
    C114     C        0.54340    0.03390    0.25180    1.000
    C115     C        0.51870    0.14920    0.30020    1.000
    C116     C        0.69900    0.05010    0.34430    1.000
    C117     C        0.78260    0.10770    0.37500    1.000
    C118     C        0.87090    0.08370    0.42200    1.000
    C119     C        0.88100    0.00200    0.43670    1.000
    C120     C        0.80100    0.94440    0.40490    1.000
    C121     C        0.70980    0.96800    0.35860    1.000
    C122     C        0.10270    0.19240    0.17140    1.000
    C123     C        0.00480    0.17170    0.11990    1.000
    C124     C        0.88250    0.11690    0.12470    1.000
    C125     C        0.78860    0.10270    0.07690    1.000
    C126     C        0.80750    0.14320    0.02460    1.000
    C127     C        0.93700    0.19230    0.02060    1.000
    C128     C        0.03370    0.20750    0.06670    1.000
    N1       N        0.57540    0.65500    0.75600    1.000
    N2       N        0.40360    0.57710    0.80020    1.000
    N3       N        0.03310    0.47250    0.98530    1.000
    N4       N        0.01710    0.74740    0.47710    1.000
    N5       N        0.92460    0.65500    0.24400    1.000
    N6       N        0.09640    0.57710    0.19980    1.000
    N7       N        0.46690    0.47250    0.01470    1.000
    N8       N        0.48290    0.74740    0.52290    1.000
    N9       N        0.92460    0.84500    0.25600    1.000
    N10      N        0.09640    0.92290    0.30020    1.000
    N11      N        0.46690    0.02750    0.48530    1.000
    N12      N        0.48290    0.75260    0.97710    1.000
    N13      N        0.57540    0.84500    0.74400    1.000
    N14      N        0.40360    0.92290    0.69980    1.000
    N15      N        0.03310    0.02750    0.51470    1.000
    N16      N        0.01710    0.75260    0.02290    1.000
    N17      N        0.42460    0.34500    0.24400    1.000
    N18      N        0.59640    0.42290    0.19980    1.000
    N19      N        0.96690    0.52750    0.01470    1.000
    N20      N        0.98290    0.25260    0.52290    1.000
    N21      N        0.07540    0.34500    0.75600    1.000
    N22      N        0.90360    0.42290    0.80020    1.000
    N23      N        0.53310    0.52750    0.98530    1.000
    N24      N        0.51710    0.25260    0.47710    1.000
    N25      N        0.07540    0.15500    0.74400    1.000
    N26      N        0.90360    0.07710    0.69980    1.000
    N27      N        0.53310    0.97250    0.51470    1.000
    N28      N        0.51710    0.24740    0.02290    1.000
    N29      N        0.42460    0.15500    0.25600    1.000
    N30      N        0.59640    0.07710    0.30020    1.000
    N31      N        0.96690    0.97250    0.48530    1.000
    N32      N        0.98290    0.24740    0.97710    1.000
    O1       O        0.79170    0.74570    0.66380    1.000
    O2       O        0.92200    0.66130    0.71939    1.000
    O3       O        0.88470    0.75790    0.46160    1.000
    O4       O        0.11240    0.76610    0.44090    1.000
    O5       O        0.70830    0.74570    0.33620    1.000
    O6       O        0.57800    0.66130    0.28061    1.000
    O7       O        0.61530    0.75790    0.53840    1.000
    O8       O        0.38760    0.76610    0.55910    1.000
    O9       O        0.70830    0.75430    0.16380    1.000
    O10      O        0.57800    0.83870    0.21939    1.000
    O11      O        0.61530    0.74210    0.96160    1.000
    O12      O        0.38760    0.73390    0.94090    1.000
    O13      O        0.79170    0.75430    0.83620    1.000
    O14      O        0.92200    0.83870    0.78061    1.000
    O15      O        0.88470    0.74210    0.03840    1.000
    O16      O        0.11240    0.73390    0.05910    1.000
    O17      O        0.20830    0.25430    0.33620    1.000
    O18      O        0.07800    0.33870    0.28061    1.000
    O19      O        0.11530    0.24210    0.53840    1.000
    O20      O        0.88760    0.23390    0.55910    1.000
    O21      O        0.29170    0.25430    0.66380    1.000
    O22      O        0.42200    0.33870    0.71939    1.000
    O23      O        0.38470    0.24210    0.46160    1.000
    O24      O        0.61240    0.23390    0.44090    1.000
    O25      O        0.29170    0.24570    0.83620    1.000
    O26      O        0.42200    0.16130    0.78061    1.000
    O27      O        0.38470    0.25790    0.03840    1.000
    O28      O        0.61240    0.26610    0.05910    1.000
    O29      O        0.20830    0.24570    0.16380    1.000
    O30      O        0.07800    0.16130    0.21939    1.000
    O31      O        0.11530    0.25790    0.96160    1.000
    O32      O        0.88760    0.26610    0.94090    1.000
