# CIF file generated by openbabel 3.1.0, see https://openbabel.org
data_I
_chemical_name_common 'image0'
_cell_length_a 6.9676
_cell_length_b 17.4113
_cell_length_c 18.6278
_cell_angle_alpha 90
_cell_angle_beta 90
_cell_angle_gamma 90
_space_group_name_H-M_alt 'P 1'
_space_group_name_Hall 'P 1'
loop_
    _symmetry_equiv_pos_as_xyz
    x,y,z
loop_
    _atom_site_label
    _atom_site_type_symbol
    _atom_site_fract_x
    _atom_site_fract_y
    _atom_site_fract_z
    _atom_site_occupancy
    C1       C        0.91200    0.60467    0.58988    1.000
    H1       H        0.78550    0.58910    0.60220    1.000
    C2       C        0.21870    0.60726    0.57936    1.000
    H2       H        0.35050    0.59380    0.58300    1.000
    C3       C        0.08920    0.38850    0.90535    1.000
    H3       H        0.21370    0.40120    0.88830    1.000
    C4       C        0.78350    0.39117    0.92435    1.000
    H4       H        0.65230    0.40600    0.92300    1.000
    C5       C        0.90540    0.49362    0.84150    1.000
    H5       H        0.99680    0.53430    0.85580    1.000
    H6       H        0.77380    0.51450    0.84610    1.000
    C6       C        0.94140    0.47178    0.76488    1.000
    H7       H        0.87440    0.42920    0.74510    1.000
    C7       C        0.06270    0.50963    0.72430    1.000
    H8       H        0.13730    0.54930    0.74540    1.000
    C8       C        0.08820    0.49296    0.64656    1.000
    H9       H        0.21550    0.46930    0.63830    1.000
    H10      H        0.98850    0.45640    0.63030    1.000
    N1       N        0.95660    0.66796    0.55518    1.000
    N2       N        0.07280    0.56555    0.60518    1.000
    N3       N        0.04760    0.33036    0.94788    1.000
    N4       N        0.92720    0.42696    0.88995    1.000
    N5       N        0.15230    0.66991    0.54815    1.000
    N6       N        0.85300    0.33250    0.96015    1.000
    Cu1      Cu       0.70779    0.25064    0.00822    1.000
    C9       C        0.58800    0.39533    0.08988    1.000
    H11      H        0.71450    0.41090    0.10220    1.000
    C10      C        0.28130    0.39274    0.07936    1.000
    H12      H        0.14950    0.40620    0.08300    1.000
    C11      C        0.41080    0.61150    0.40535    1.000
    H13      H        0.28630    0.59880    0.38830    1.000
    C12      C        0.71650    0.60883    0.42435    1.000
    H14      H        0.84770    0.59400    0.42300    1.000
    C13      C        0.59460    0.50638    0.34150    1.000
    H15      H        0.50320    0.46570    0.35580    1.000
    H16      H        0.72620    0.48550    0.34610    1.000
    C14      C        0.55860    0.52822    0.26488    1.000
    H17      H        0.62560    0.57080    0.24510    1.000
    C15      C        0.43730    0.49037    0.22430    1.000
    H18      H        0.36270    0.45070    0.24540    1.000
    C16      C        0.41180    0.50704    0.14656    1.000
    H19      H        0.28450    0.53070    0.13830    1.000
    H20      H        0.51150    0.54360    0.13030    1.000
    N7       N        0.54340    0.33204    0.05518    1.000
    N8       N        0.42720    0.43445    0.10518    1.000
    N9       N        0.45240    0.66964    0.44788    1.000
    N10      N        0.57280    0.57304    0.38995    1.000
    N11      N        0.34770    0.33009    0.04815    1.000
    N12      N        0.64700    0.66750    0.46015    1.000
    Cu2      Cu       0.79221    0.74936    0.50822    1.000
    C17      C        0.08800    0.10467    0.91012    1.000
    H21      H        0.21450    0.08910    0.89780    1.000
    C18      C        0.78130    0.10726    0.92064    1.000
    H22      H        0.64950    0.09380    0.91700    1.000
    C19      C        0.91080    0.88850    0.59465    1.000
    H23      H        0.78630    0.90120    0.61170    1.000
    C20      C        0.21650    0.89117    0.57565    1.000
    H24      H        0.34770    0.90600    0.57700    1.000
    C21      C        0.09460    0.99362    0.65850    1.000
    H25      H        0.00320    0.03430    0.64420    1.000
    H26      H        0.22620    0.01450    0.65390    1.000
    C22      C        0.05860    0.97178    0.73512    1.000
    H27      H        0.12560    0.92920    0.75490    1.000
    C23      C        0.93730    0.00963    0.77570    1.000
    H28      H        0.86270    0.04930    0.75460    1.000
    C24      C        0.91180    0.99296    0.85344    1.000
    H29      H        0.78450    0.96930    0.86170    1.000
    H30      H        0.01150    0.95640    0.86970    1.000
    N13      N        0.04340    0.16796    0.94482    1.000
    N14      N        0.92720    0.06555    0.89482    1.000
    N15      N        0.95240    0.83036    0.55212    1.000
    N16      N        0.07280    0.92696    0.61005    1.000
    N17      N        0.84770    0.16991    0.95185    1.000
    N18      N        0.14700    0.83250    0.53985    1.000
    Cu3      Cu       0.29221    0.75064    0.49178    1.000
    C25      C        0.41200    0.89533    0.41012    1.000
    H31      H        0.28550    0.91090    0.39780    1.000
    C26      C        0.71870    0.89274    0.42064    1.000
    H32      H        0.85050    0.90620    0.41700    1.000
    C27      C        0.58920    0.11150    0.09465    1.000
    H33      H        0.71370    0.09880    0.11170    1.000
    C28      C        0.28350    0.10883    0.07565    1.000
    H34      H        0.15230    0.09400    0.07700    1.000
    C29      C        0.40540    0.00638    0.15850    1.000
    H35      H        0.49680    0.96570    0.14420    1.000
    H36      H        0.27380    0.98550    0.15390    1.000
    C30      C        0.44140    0.02822    0.23512    1.000
    H37      H        0.37440    0.07080    0.25490    1.000
    C31      C        0.56270    0.99037    0.27570    1.000
    H38      H        0.63730    0.95070    0.25460    1.000
    C32      C        0.58820    0.00704    0.35344    1.000
    H39      H        0.71550    0.03070    0.36170    1.000
    H40      H        0.48850    0.04360    0.36970    1.000
    N19      N        0.45660    0.83204    0.44482    1.000
    N20      N        0.57280    0.93445    0.39482    1.000
    N21      N        0.54760    0.16964    0.05212    1.000
    N22      N        0.42720    0.07304    0.11005    1.000
    N23      N        0.65230    0.83009    0.45185    1.000
    N24      N        0.35300    0.16750    0.03985    1.000
    Cu4      Cu       0.20779    0.24936    0.99178    1.000
