# CIF file generated by openbabel 3.1.0, see https://openbabel.org
data_I
_chemical_name_common 'image0'
_cell_length_a 20.4782
_cell_length_b 12.0724
_cell_length_c 16.9099
_cell_angle_alpha 90
_cell_angle_beta 90
_cell_angle_gamma 90
_space_group_name_H-M_alt 'P 1'
_space_group_name_Hall 'P 1'
loop_
    _symmetry_equiv_pos_as_xyz
    x,y,z
loop_
    _atom_site_label
    _atom_site_type_symbol
    _atom_site_fract_x
    _atom_site_fract_y
    _atom_site_fract_z
    _atom_site_occupancy
    Zn1      Zn       0.58747    0.04387    0.05703    1.000
    P1       P        0.95311    0.45499    0.37653    1.000
    O1       O        0.94214    0.73270    0.20604    1.000
    O2       O        0.92257    0.70538    0.07919    1.000
    O3       O        0.69408    0.87982    0.03987    1.000
    O4       O        0.67372    0.03509    0.10453    1.000
    O5       O        0.94183    0.55392    0.32150    1.000
    O6       O        0.90631    0.46580    0.44522    1.000
    O7       O        0.02391    0.44426    0.40037    1.000
    C1       C        0.92970    0.33340    0.32214    1.000
    C2       C        0.94435    0.22840    0.34849    1.000
    H1       H        0.96910    0.21960    0.39420    1.000
    C3       C        0.92289    0.13600    0.30821    1.000
    H2       H        0.93350    0.06590    0.32710    1.000
    C4       C        0.88563    0.14590    0.23980    1.000
    C5       C        0.86189    0.04730    0.19573    1.000
    C6       C        0.89982    0.95220    0.18860    1.000
    H3       H        0.94000    0.94860    0.21410    1.000
    C7       C        0.87855    0.86270    0.14384    1.000
    C8       C        0.81803    0.86550    0.10718    1.000
    H4       H        0.80420    0.80660    0.07590    1.000
    C9       C        0.77832    0.95740    0.11775    1.000
    C10      C        0.80045    0.04760    0.16035    1.000
    H5       H        0.77380    0.10960    0.16550    1.000
    C11      C        0.87154    0.25140    0.21325    1.000
    H6       H        0.84710    0.26020    0.16730    1.000
    C12      C        0.89294    0.34400    0.25333    1.000
    H7       H        0.88270    0.41420    0.23420    1.000
    C13      C        0.91761    0.75810    0.14173    1.000
    C14      C        0.71018    0.95640    0.08365    1.000
    Zn2      Zn       0.91253    0.45613    0.55703    1.000
    P2       P        0.54689    0.04501    0.87653    1.000
    O8       O        0.55786    0.76730    0.70604    1.000
    O9       O        0.57743    0.79462    0.57919    1.000
    O10      O        0.80592    0.62018    0.53987    1.000
    O11      O        0.82628    0.46491    0.60453    1.000
    O12      O        0.55817    0.94608    0.82150    1.000
    O13      O        0.59369    0.03420    0.94522    1.000
    O14      O        0.47609    0.05574    0.90037    1.000
    C15      C        0.57030    0.16660    0.82214    1.000
    C16      C        0.55565    0.27160    0.84849    1.000
    H8       H        0.53090    0.28040    0.89420    1.000
    C17      C        0.57711    0.36400    0.80821    1.000
    H9       H        0.56650    0.43410    0.82710    1.000
    C18      C        0.61437    0.35410    0.73980    1.000
    C19      C        0.63811    0.45270    0.69573    1.000
    C20      C        0.60018    0.54780    0.68860    1.000
    H10      H        0.56000    0.55140    0.71410    1.000
    C21      C        0.62145    0.63730    0.64384    1.000
    C22      C        0.68197    0.63450    0.60718    1.000
    H11      H        0.69580    0.69340    0.57590    1.000
    C23      C        0.72168    0.54260    0.61775    1.000
    C24      C        0.69955    0.45240    0.66035    1.000
    H12      H        0.72620    0.39040    0.66550    1.000
    C25      C        0.62846    0.24860    0.71325    1.000
    H13      H        0.65290    0.23980    0.66730    1.000
    C26      C        0.60706    0.15600    0.75333    1.000
    H14      H        0.61730    0.08580    0.73420    1.000
    C27      C        0.58239    0.74190    0.64173    1.000
    C28      C        0.78982    0.54360    0.58365    1.000
    Zn3      Zn       0.41253    0.04387    0.44297    1.000
    P3       P        0.04689    0.45499    0.12347    1.000
    O15      O        0.05786    0.73270    0.29396    1.000
    O16      O        0.07743    0.70538    0.42081    1.000
    O17      O        0.30592    0.87982    0.46013    1.000
    O18      O        0.32628    0.03509    0.39547    1.000
    O19      O        0.05817    0.55392    0.17850    1.000
    O20      O        0.09369    0.46580    0.05478    1.000
    O21      O        0.97609    0.44426    0.09963    1.000
    C29      C        0.07030    0.33340    0.17786    1.000
    C30      C        0.05565    0.22840    0.15151    1.000
    H15      H        0.03090    0.21960    0.10580    1.000
    C31      C        0.07711    0.13600    0.19179    1.000
    H16      H        0.06650    0.06590    0.17290    1.000
    C32      C        0.11437    0.14590    0.26020    1.000
    C33      C        0.13811    0.04730    0.30427    1.000
    C34      C        0.10018    0.95220    0.31140    1.000
    H17      H        0.06000    0.94860    0.28590    1.000
    C35      C        0.12145    0.86270    0.35616    1.000
    C36      C        0.18197    0.86550    0.39282    1.000
    H18      H        0.19580    0.80660    0.42410    1.000
    C37      C        0.22168    0.95740    0.38225    1.000
    C38      C        0.19955    0.04760    0.33965    1.000
    H19      H        0.22620    0.10960    0.33450    1.000
    C39      C        0.12846    0.25140    0.28675    1.000
    H20      H        0.15290    0.26020    0.33270    1.000
    C40      C        0.10706    0.34400    0.24667    1.000
    H21      H        0.11730    0.41420    0.26580    1.000
    C41      C        0.08239    0.75810    0.35827    1.000
    C42      C        0.28982    0.95640    0.41635    1.000
    Zn4      Zn       0.08747    0.45613    0.94297    1.000
    P4       P        0.45311    0.04501    0.62347    1.000
    O22      O        0.44214    0.76730    0.79396    1.000
    O23      O        0.42257    0.79462    0.92081    1.000
    O24      O        0.19408    0.62018    0.96013    1.000
    O25      O        0.17372    0.46491    0.89547    1.000
    O26      O        0.44183    0.94608    0.67850    1.000
    O27      O        0.40631    0.03420    0.55478    1.000
    O28      O        0.52391    0.05574    0.59963    1.000
    C43      C        0.42970    0.16660    0.67786    1.000
    C44      C        0.44435    0.27160    0.65151    1.000
    H22      H        0.46910    0.28040    0.60580    1.000
    C45      C        0.42289    0.36400    0.69179    1.000
    H23      H        0.43350    0.43410    0.67290    1.000
    C46      C        0.38563    0.35410    0.76020    1.000
    C47      C        0.36189    0.45270    0.80427    1.000
    C48      C        0.39982    0.54780    0.81140    1.000
    H24      H        0.44000    0.55140    0.78590    1.000
    C49      C        0.37855    0.63730    0.85616    1.000
    C50      C        0.31803    0.63450    0.89282    1.000
    H25      H        0.30420    0.69340    0.92410    1.000
    C51      C        0.27832    0.54260    0.88225    1.000
    C52      C        0.30045    0.45240    0.83965    1.000
    H26      H        0.27380    0.39040    0.83450    1.000
    C53      C        0.37154    0.24860    0.78675    1.000
    H27      H        0.34710    0.23980    0.83270    1.000
    C54      C        0.39294    0.15600    0.74667    1.000
    H28      H        0.38270    0.08580    0.76580    1.000
    C55      C        0.41761    0.74190    0.85827    1.000
    C56      C        0.21018    0.54360    0.91635    1.000
    Zn5      Zn       0.41253    0.95613    0.94297    1.000
    P5       P        0.04689    0.54501    0.62347    1.000
    O29      O        0.05786    0.26730    0.79396    1.000
    O30      O        0.07743    0.29462    0.92081    1.000
    O31      O        0.30592    0.12018    0.96013    1.000
    O32      O        0.32628    0.96491    0.89547    1.000
    O33      O        0.05817    0.44608    0.67850    1.000
    O34      O        0.09369    0.53420    0.55478    1.000
    O35      O        0.97609    0.55574    0.59963    1.000
    C57      C        0.07030    0.66660    0.67786    1.000
    C58      C        0.05565    0.77160    0.65151    1.000
    H29      H        0.03090    0.78040    0.60580    1.000
    C59      C        0.07711    0.86400    0.69179    1.000
    H30      H        0.06650    0.93410    0.67290    1.000
    C60      C        0.11437    0.85410    0.76020    1.000
    C61      C        0.13811    0.95270    0.80427    1.000
    C62      C        0.10018    0.04780    0.81140    1.000
    H31      H        0.06000    0.05140    0.78590    1.000
    C63      C        0.12145    0.13730    0.85616    1.000
    C64      C        0.18197    0.13450    0.89282    1.000
    H32      H        0.19580    0.19340    0.92410    1.000
    C65      C        0.22168    0.04260    0.88225    1.000
    C66      C        0.19955    0.95240    0.83965    1.000
    H33      H        0.22620    0.89040    0.83450    1.000
    C67      C        0.12846    0.74860    0.78675    1.000
    H34      H        0.15290    0.73980    0.83270    1.000
    C68      C        0.10706    0.65600    0.74667    1.000
    H35      H        0.11730    0.58580    0.76580    1.000
    C69      C        0.08239    0.24190    0.85827    1.000
    C70      C        0.28982    0.04360    0.91635    1.000
    Zn6      Zn       0.08747    0.54387    0.44297    1.000
    P6       P        0.45311    0.95499    0.12347    1.000
    O36      O        0.44214    0.23270    0.29396    1.000
    O37      O        0.42257    0.20538    0.42081    1.000
    O38      O        0.19408    0.37982    0.46013    1.000
    O39      O        0.17372    0.53509    0.39547    1.000
    O40      O        0.44183    0.05392    0.17850    1.000
    O41      O        0.40631    0.96580    0.05478    1.000
    O42      O        0.52391    0.94426    0.09963    1.000
    C71      C        0.42970    0.83340    0.17786    1.000
    C72      C        0.44435    0.72840    0.15151    1.000
    H36      H        0.46910    0.71960    0.10580    1.000
    C73      C        0.42289    0.63600    0.19179    1.000
    H37      H        0.43350    0.56590    0.17290    1.000
    C74      C        0.38563    0.64590    0.26020    1.000
    C75      C        0.36189    0.54730    0.30427    1.000
    C76      C        0.39982    0.45220    0.31140    1.000
    H38      H        0.44000    0.44860    0.28590    1.000
    C77      C        0.37855    0.36270    0.35616    1.000
    C78      C        0.31803    0.36550    0.39282    1.000
    H39      H        0.30420    0.30660    0.42410    1.000
    C79      C        0.27832    0.45740    0.38225    1.000
    C80      C        0.30045    0.54760    0.33965    1.000
    H40      H        0.27380    0.60960    0.33450    1.000
    C81      C        0.37154    0.75140    0.28675    1.000
    H41      H        0.34710    0.76020    0.33270    1.000
    C82      C        0.39294    0.84400    0.24667    1.000
    H42      H        0.38270    0.91420    0.26580    1.000
    C83      C        0.41761    0.25810    0.35827    1.000
    C84      C        0.21018    0.45640    0.41635    1.000
    Zn7      Zn       0.58747    0.95613    0.55703    1.000
    P7       P        0.95311    0.54501    0.87653    1.000
    O43      O        0.94214    0.26730    0.70604    1.000
    O44      O        0.92257    0.29462    0.57919    1.000
    O45      O        0.69408    0.12018    0.53987    1.000
    O46      O        0.67372    0.96491    0.60453    1.000
    O47      O        0.94183    0.44608    0.82150    1.000
    O48      O        0.90631    0.53420    0.94522    1.000
    O49      O        0.02391    0.55574    0.90037    1.000
    C85      C        0.92970    0.66660    0.82214    1.000
    C86      C        0.94435    0.77160    0.84849    1.000
    H43      H        0.96910    0.78040    0.89420    1.000
    C87      C        0.92289    0.86400    0.80821    1.000
    H44      H        0.93350    0.93410    0.82710    1.000
    C88      C        0.88563    0.85410    0.73980    1.000
    C89      C        0.86189    0.95270    0.69573    1.000
    C90      C        0.89982    0.04780    0.68860    1.000
    H45      H        0.94000    0.05140    0.71410    1.000
    C91      C        0.87855    0.13730    0.64384    1.000
    C92      C        0.81803    0.13450    0.60718    1.000
    H46      H        0.80420    0.19340    0.57590    1.000
    C93      C        0.77832    0.04260    0.61775    1.000
    C94      C        0.80045    0.95240    0.66035    1.000
    H47      H        0.77380    0.89040    0.66550    1.000
    C95      C        0.87154    0.74860    0.71325    1.000
    H48      H        0.84710    0.73980    0.66730    1.000
    C96      C        0.89294    0.65600    0.75333    1.000
    H49      H        0.88270    0.58580    0.73420    1.000
    C97      C        0.91761    0.24190    0.64173    1.000
    C98      C        0.71018    0.04360    0.58365    1.000
    Zn8      Zn       0.91253    0.54387    0.05703    1.000
    P8       P        0.54689    0.95499    0.37653    1.000
    O50      O        0.55786    0.23270    0.20604    1.000
    O51      O        0.57743    0.20538    0.07919    1.000
    O52      O        0.80592    0.37982    0.03987    1.000
    O53      O        0.82628    0.53509    0.10453    1.000
    O54      O        0.55817    0.05392    0.32150    1.000
    O55      O        0.59369    0.96580    0.44522    1.000
    O56      O        0.47609    0.94426    0.40037    1.000
    C99      C        0.57030    0.83340    0.32214    1.000
    C100     C        0.55565    0.72840    0.34849    1.000
    H50      H        0.53090    0.71960    0.39420    1.000
    C101     C        0.57711    0.63600    0.30821    1.000
    H51      H        0.56650    0.56590    0.32710    1.000
    C102     C        0.61437    0.64590    0.23980    1.000
    C103     C        0.63811    0.54730    0.19573    1.000
    C104     C        0.60018    0.45220    0.18860    1.000
    H52      H        0.56000    0.44860    0.21410    1.000
    C105     C        0.62145    0.36270    0.14384    1.000
    C106     C        0.68197    0.36550    0.10718    1.000
    H53      H        0.69580    0.30660    0.07590    1.000
    C107     C        0.72168    0.45740    0.11775    1.000
    C108     C        0.69955    0.54760    0.16035    1.000
    H54      H        0.72620    0.60960    0.16550    1.000
    C109     C        0.62846    0.75140    0.21325    1.000
    H55      H        0.65290    0.76020    0.16730    1.000
    C110     C        0.60706    0.84400    0.25333    1.000
    H56      H        0.61730    0.91420    0.23420    1.000
    C111     C        0.58239    0.25810    0.14173    1.000
    C112     C        0.78982    0.45640    0.08365    1.000
    Zn9      Zn       0.00000    0.62287    0.25000    1.000
    Zn10     Zn       0.50000    0.87713    0.75000    1.000
    Zn11     Zn       0.00000    0.37713    0.75000    1.000
    Zn12     Zn       0.50000    0.12287    0.25000    1.000
