# CIF file generated by openbabel 3.1.0, see https://openbabel.org
data_I
_chemical_name_common 'MAYXUG_clean'
_cell_length_a 5.9565
_cell_length_b 7.3716
_cell_length_c 13.1769
_cell_angle_alpha 102.925
_cell_angle_beta 101.637
_cell_angle_gamma 90.785
_space_group_name_H-M_alt 'P 1'
_space_group_name_Hall 'P 1'
loop_
    _symmetry_equiv_pos_as_xyz
    x,y,z
loop_
    _atom_site_label
    _atom_site_type_symbol
    _atom_site_fract_x
    _atom_site_fract_y
    _atom_site_fract_z
    _atom_site_occupancy
    Er1      Er       0.97961    0.18080    0.32099    1.000
    Er2      Er       0.02035    0.81943    0.67895    1.000
    H1       H        0.64720    0.04230    0.94270    1.000
    H2       H        0.34850    0.10240    0.04280    1.000
    H3       H        0.50610    0.68040    0.43430    1.000
    H4       H        0.52830    0.72120    0.27000    1.000
    H5       H        0.48830    0.24530    0.56650    1.000
    H6       H        0.44940    0.40290    0.73320    1.000
    H7       H        0.79640    0.78040    0.93430    1.000
    H8       H        0.23010    0.89140    0.10410    1.000
    H9       H        0.75970    0.99060    0.51280    1.000
    H10      H        0.83360    0.79590    0.24390    1.000
    H11      H        0.23400    0.48900    0.49210    1.000
    H12      H        0.14410    0.50170    0.75290    1.000
    C1       C        0.78800    0.05670    0.10270    1.000
    C2       C        0.62880    0.96950    0.99640    1.000
    C3       C        0.37900    0.97120    0.01080    1.000
    C4       C        0.22000    0.91100    0.89940    1.000
    C5       C        0.84240    0.61090    0.43170    1.000
    C6       C        0.65160    0.74840    0.43310    1.000
    C7       C        0.61590    0.82100    0.32990    1.000
    C8       C        0.48480    0.99510    0.33580    1.000
    C9       C        0.15070    0.16610    0.56570    1.000
    C10      C        0.34180    0.30970    0.56770    1.000
    C11      C        0.37090    0.45720    0.67330    1.000
    C12      C        0.50890    0.62900    0.67140    1.000
    O1       O        0.74330    0.21920    0.15160    1.000
    O2       O        0.95660    0.98020    0.14140    1.000
    O3       O        0.67560    0.78350    0.95960    1.000
    O4       O        0.35210    0.86270    0.08170    1.000
    O5       O        0.25120    0.01190    0.83610    1.000
    O6       O        0.07940    0.78420    0.87650    1.000
    O7       O        0.82170    0.47330    0.35550    1.000
    O8       O        0.01660    0.65270    0.50750    1.000
    O9       O        0.71210    0.89370    0.52890    1.000
    O10      O        0.83620    0.85660    0.30710    1.000
    O11      O        0.59270    0.14320    0.32940    1.000
    O12      O        0.28240    0.98900    0.34440    1.000
    O13      O        0.97540    0.14630    0.49160    1.000
    O14      O        0.17630    0.08310    0.64040    1.000
    O15      O        0.28360    0.38130    0.47460    1.000
    O16      O        0.14950    0.51340    0.69070    1.000
    O17      O        0.40510    0.77710    0.67290    1.000
    O18      O        0.71740    0.61540    0.66850    1.000
