# CIF file generated by openbabel 3.1.0, see https://openbabel.org
data_I
_chemical_name_common 'image0'
_cell_length_a 10.4402
_cell_length_b 10.513
_cell_length_c 6.3021
_cell_angle_alpha 90
_cell_angle_beta 115.217
_cell_angle_gamma 90
_space_group_name_H-M_alt 'P 1'
_space_group_name_Hall 'P 1'
loop_
    _symmetry_equiv_pos_as_xyz
    x,y,z
loop_
    _atom_site_label
    _atom_site_type_symbol
    _atom_site_fract_x
    _atom_site_fract_y
    _atom_site_fract_z
    _atom_site_occupancy
    C1       C        0.31600    0.21030    0.54600    1.000
    H1       H        0.39700    0.26510    0.57870    1.000
    H2       H        0.32760    0.17120    0.69250    1.000
    N1       N        0.31360    0.11060    0.38170    1.000
    H3       H        0.29970    0.14710    0.24440    1.000
    H4       H        0.23960    0.05870    0.35480    1.000
    C2       C        0.81600    0.71030    0.54600    1.000
    H5       H        0.89700    0.76510    0.57870    1.000
    H6       H        0.82760    0.67120    0.69250    1.000
    N2       N        0.81360    0.61060    0.38170    1.000
    H7       H        0.79970    0.64710    0.24440    1.000
    H8       H        0.73960    0.55870    0.35480    1.000
    C3       C        0.68400    0.21030    0.95400    1.000
    H9       H        0.60300    0.26510    0.92130    1.000
    H10      H        0.67240    0.17120    0.80750    1.000
    N3       N        0.68640    0.11060    0.11830    1.000
    H11      H        0.70030    0.14710    0.25560    1.000
    H12      H        0.76040    0.05870    0.14520    1.000
    C4       C        0.18400    0.71030    0.95400    1.000
    H13      H        0.10300    0.76510    0.92130    1.000
    H14      H        0.17240    0.67120    0.80750    1.000
    N4       N        0.18640    0.61060    0.11830    1.000
    H15      H        0.20030    0.64710    0.25560    1.000
    H16      H        0.26040    0.55870    0.14520    1.000
    C5       C        0.68400    0.78970    0.45400    1.000
    H17      H        0.60300    0.73490    0.42130    1.000
    H18      H        0.67240    0.82880    0.30750    1.000
    N5       N        0.68640    0.88940    0.61830    1.000
    H19      H        0.70030    0.85290    0.75560    1.000
    H20      H        0.76040    0.94130    0.64520    1.000
    C6       C        0.18400    0.28970    0.45400    1.000
    H21      H        0.10300    0.23490    0.42130    1.000
    H22      H        0.17240    0.32880    0.30750    1.000
    N6       N        0.18640    0.38940    0.61830    1.000
    H23      H        0.20030    0.35290    0.75560    1.000
    H24      H        0.26040    0.44130    0.64520    1.000
    C7       C        0.31600    0.78970    0.04600    1.000
    H25      H        0.39700    0.73490    0.07870    1.000
    H26      H        0.32760    0.82880    0.19250    1.000
    N7       N        0.31360    0.88940    0.88170    1.000
    H27      H        0.29970    0.85290    0.74440    1.000
    H28      H        0.23960    0.94130    0.85480    1.000
    C8       C        0.81600    0.28970    0.04600    1.000
    H29      H        0.89700    0.23490    0.07870    1.000
    H30      H        0.82760    0.32880    0.19250    1.000
    N8       N        0.81360    0.38940    0.88170    1.000
    H31      H        0.79970    0.35290    0.74440    1.000
    H32      H        0.73960    0.44130    0.85480    1.000
    Ag1      Ag       0.50000    0.00000    0.50000    1.000
    Ag2      Ag       0.00000    0.50000    0.50000    1.000
    Ag3      Ag       0.50000    0.00000    0.00000    1.000
    Ag4      Ag       0.00000    0.50000    0.00000    1.000
