# CIF file generated by openbabel 3.1.0, see https://openbabel.org
data_I
_chemical_name_common 'image0'
_cell_length_a 13.2385
_cell_length_b 13.2385
_cell_length_c 46.3808
_cell_angle_alpha 90
_cell_angle_beta 90
_cell_angle_gamma 120
_space_group_name_H-M_alt 'P 1'
_space_group_name_Hall 'P 1'
loop_
    _symmetry_equiv_pos_as_xyz
    x,y,z
loop_
    _atom_site_label
    _atom_site_type_symbol
    _atom_site_fract_x
    _atom_site_fract_y
    _atom_site_fract_z
    _atom_site_occupancy
    P1       P        0.75777    0.99441    0.03363    1.000
    Mg1      Mg       0.99443    0.23291    0.03348    1.000
    O1       O        0.96770    0.32180    0.05647    1.000
    O2       O        0.89580    0.43930    0.07955    1.000
    O3       O        0.74350    0.87715    0.04178    1.000
    O4       O        0.88459    0.08592    0.03766    1.000
    O5       O        0.71930    0.99252    0.00269    1.000
    O6       O        0.67970    0.01880    0.05240    1.000
    Al1      Al       0.76709    0.76152    0.03348    1.000
    P2       P        0.42444    0.32774    0.36696    1.000
    Mg2      Mg       0.66110    0.56624    0.36681    1.000
    O7       O        0.63437    0.65513    0.38980    1.000
    O8       O        0.56247    0.77263    0.41288    1.000
    O9       O        0.41017    0.21048    0.37511    1.000
    O10      O        0.55126    0.41925    0.37099    1.000
    O11      O        0.38597    0.32585    0.33602    1.000
    O12      O        0.34637    0.35213    0.38573    1.000
    Al2      Al       0.43376    0.09485    0.36681    1.000
    P3       P        0.09110    0.66108    0.70029    1.000
    Mg3      Mg       0.32776    0.89958    0.70014    1.000
    O13      O        0.30103    0.98847    0.72314    1.000
    O14      O        0.22913    0.10597    0.74622    1.000
    O15      O        0.07683    0.54382    0.70845    1.000
    O16      O        0.21792    0.75259    0.70433    1.000
    O17      O        0.05263    0.65919    0.66936    1.000
    O18      O        0.01303    0.68547    0.71907    1.000
    Al3      Al       0.10042    0.42819    0.70014    1.000
    P4       P        0.00559    0.76336    0.03363    1.000
    O19      O        0.67820    0.64590    0.05647    1.000
    O20      O        0.56070    0.45650    0.07955    1.000
    O21      O        0.12285    0.86635    0.04178    1.000
    O22      O        0.91408    0.79867    0.03766    1.000
    O23      O        0.00748    0.72678    0.00269    1.000
    O24      O        0.98120    0.66090    0.05240    1.000
    Al4      Al       0.23848    0.00557    0.03348    1.000
    P5       P        0.67226    0.09669    0.36696    1.000
    O25      O        0.34487    0.97923    0.38980    1.000
    O26      O        0.22737    0.78983    0.41288    1.000
    O27      O        0.78952    0.19968    0.37511    1.000
    O28      O        0.58075    0.13200    0.37099    1.000
    O29      O        0.67415    0.06011    0.33602    1.000
    O30      O        0.64787    0.99423    0.38573    1.000
    Al5      Al       0.90515    0.33890    0.36681    1.000
    P6       P        0.33892    0.43003    0.70029    1.000
    O31      O        0.01153    0.31257    0.72314    1.000
    O32      O        0.89403    0.12317    0.74622    1.000
    O33      O        0.45618    0.53302    0.70845    1.000
    O34      O        0.24741    0.46534    0.70433    1.000
    O35      O        0.34081    0.39345    0.66936    1.000
    O36      O        0.31453    0.32757    0.71907    1.000
    Al6      Al       0.57181    0.67224    0.70014    1.000
    P7       P        0.23664    0.24223    0.03363    1.000
    O37      O        0.35410    0.03230    0.05647    1.000
    O38      O        0.54350    0.10420    0.07955    1.000
    O39      O        0.13365    0.25650    0.04178    1.000
    O40      O        0.20133    0.11541    0.03766    1.000
    O41      O        0.27322    0.28070    0.00269    1.000
    O42      O        0.33910    0.32030    0.05240    1.000
    P8       P        0.90331    0.57556    0.36696    1.000
    O43      O        0.02077    0.36563    0.38980    1.000
    O44      O        0.21017    0.43753    0.41288    1.000
    O45      O        0.80032    0.58983    0.37511    1.000
    O46      O        0.86800    0.44874    0.37099    1.000
    O47      O        0.93989    0.61403    0.33602    1.000
    O48      O        0.00577    0.65363    0.38573    1.000
    P9       P        0.56997    0.90890    0.70029    1.000
    O49      O        0.68743    0.69897    0.72314    1.000
    O50      O        0.87683    0.77087    0.74622    1.000
    O51      O        0.46698    0.92317    0.70845    1.000
    O52      O        0.53466    0.78208    0.70433    1.000
    O53      O        0.60655    0.94737    0.66936    1.000
    O54      O        0.67243    0.98697    0.71907    1.000
    P10      P        0.99441    0.75777    0.46637    1.000
    Mg4      Mg       0.23291    0.99443    0.46652    1.000
    O55      O        0.32180    0.96770    0.44353    1.000
    O56      O        0.43930    0.89580    0.42045    1.000
    O57      O        0.87715    0.74350    0.45822    1.000
    O58      O        0.08592    0.88459    0.46234    1.000
    O59      O        0.99252    0.71930    0.49731    1.000
    O60      O        0.01880    0.67970    0.44760    1.000
    Al7      Al       0.76152    0.76709    0.46652    1.000
    P11      P        0.66108    0.09110    0.79971    1.000
    Mg5      Mg       0.89958    0.32776    0.79986    1.000
    O61      O        0.98847    0.30103    0.77686    1.000
    O62      O        0.10597    0.22913    0.75378    1.000
    O63      O        0.54382    0.07683    0.79155    1.000
    O64      O        0.75259    0.21792    0.79567    1.000
    O65      O        0.65919    0.05263    0.83064    1.000
    O66      O        0.68547    0.01303    0.78093    1.000
    Al8      Al       0.42819    0.10042    0.79986    1.000
    P12      P        0.32774    0.42444    0.13304    1.000
    Mg6      Mg       0.56624    0.66110    0.13319    1.000
    O67      O        0.65513    0.63437    0.11020    1.000
    O68      O        0.77263    0.56247    0.08712    1.000
    O69      O        0.21048    0.41017    0.12489    1.000
    O70      O        0.41925    0.55126    0.12901    1.000
    O71      O        0.32585    0.38597    0.16398    1.000
    O72      O        0.35213    0.34637    0.11427    1.000
    Al9      Al       0.09485    0.43376    0.13319    1.000
    P13      P        0.76336    0.00559    0.46637    1.000
    O73      O        0.64590    0.67820    0.44353    1.000
    O74      O        0.45650    0.56070    0.42045    1.000
    O75      O        0.86635    0.12285    0.45822    1.000
    O76      O        0.79867    0.91408    0.46234    1.000
    O77      O        0.72678    0.00748    0.49731    1.000
    O78      O        0.66090    0.98120    0.44760    1.000
    Al10     Al       0.00557    0.23848    0.46652    1.000
    P14      P        0.43003    0.33892    0.79971    1.000
    O79      O        0.31257    0.01153    0.77686    1.000
    O80      O        0.12317    0.89403    0.75378    1.000
    O81      O        0.53302    0.45618    0.79155    1.000
    O82      O        0.46534    0.24741    0.79567    1.000
    O83      O        0.39345    0.34081    0.83064    1.000
    O84      O        0.32757    0.31453    0.78093    1.000
    Al11     Al       0.67224    0.57181    0.79986    1.000
    P15      P        0.09669    0.67226    0.13304    1.000
    O85      O        0.97923    0.34487    0.11020    1.000
    O86      O        0.78983    0.22737    0.08712    1.000
    O87      O        0.19968    0.78952    0.12489    1.000
    O88      O        0.13200    0.58075    0.12901    1.000
    O89      O        0.06011    0.67415    0.16398    1.000
    O90      O        0.99423    0.64787    0.11427    1.000
    Al12     Al       0.33890    0.90515    0.13319    1.000
    P16      P        0.24223    0.23664    0.46637    1.000
    O91      O        0.03230    0.35410    0.44353    1.000
    O92      O        0.10420    0.54350    0.42045    1.000
    O93      O        0.25650    0.13365    0.45822    1.000
    O94      O        0.11541    0.20133    0.46234    1.000
    O95      O        0.28070    0.27322    0.49731    1.000
    O96      O        0.32030    0.33910    0.44760    1.000
    P17      P        0.90890    0.56997    0.79971    1.000
    O97      O        0.69897    0.68743    0.77686    1.000
    O98      O        0.77087    0.87683    0.75378    1.000
    O99      O        0.92317    0.46698    0.79155    1.000
    O100     O        0.78208    0.53466    0.79567    1.000
    O101     O        0.94737    0.60655    0.83064    1.000
    O102     O        0.98697    0.67243    0.78093    1.000
    P18      P        0.57556    0.90331    0.13304    1.000
    O103     O        0.36563    0.02077    0.11020    1.000
    O104     O        0.43753    0.21017    0.08712    1.000
    O105     O        0.58983    0.80032    0.12489    1.000
    O106     O        0.44874    0.86800    0.12901    1.000
    O107     O        0.61403    0.93989    0.16398    1.000
    O108     O        0.65363    0.00577    0.11427    1.000
    P19      P        0.24223    0.00559    0.96637    1.000
    Mg7      Mg       0.00557    0.76709    0.96652    1.000
    O109     O        0.03230    0.67820    0.94353    1.000
    O110     O        0.10420    0.56070    0.92045    1.000
    O111     O        0.25650    0.12285    0.95822    1.000
    O112     O        0.11541    0.91408    0.96234    1.000
    O113     O        0.28070    0.00748    0.99731    1.000
    O114     O        0.32030    0.98120    0.94760    1.000
    Al13     Al       0.23291    0.23848    0.96652    1.000
    P20      P        0.90890    0.33892    0.29971    1.000
    Mg8      Mg       0.67224    0.10042    0.29986    1.000
    O115     O        0.69897    0.01153    0.27686    1.000
    O116     O        0.77087    0.89403    0.25378    1.000
    O117     O        0.92317    0.45618    0.29155    1.000
    O118     O        0.78208    0.24741    0.29567    1.000
    O119     O        0.94737    0.34081    0.33064    1.000
    O120     O        0.98697    0.31453    0.28093    1.000
    Al14     Al       0.89958    0.57181    0.29986    1.000
    P21      P        0.57556    0.67226    0.63304    1.000
    Mg9      Mg       0.33890    0.43376    0.63319    1.000
    O121     O        0.36563    0.34487    0.61020    1.000
    O122     O        0.43753    0.22737    0.58712    1.000
    O123     O        0.58983    0.78952    0.62489    1.000
    O124     O        0.44874    0.58075    0.62901    1.000
    O125     O        0.61403    0.67415    0.66398    1.000
    O126     O        0.65363    0.64787    0.61427    1.000
    Al15     Al       0.56624    0.90515    0.63319    1.000
    P22      P        0.99441    0.23664    0.96637    1.000
    O127     O        0.32180    0.35410    0.94353    1.000
    O128     O        0.43930    0.54350    0.92045    1.000
    O129     O        0.87715    0.13365    0.95822    1.000
    O130     O        0.08592    0.20133    0.96234    1.000
    O131     O        0.99252    0.27322    0.99731    1.000
    O132     O        0.01880    0.33910    0.94760    1.000
    Al16     Al       0.76152    0.99443    0.96652    1.000
    P23      P        0.66108    0.56997    0.29971    1.000
    O133     O        0.98847    0.68743    0.27686    1.000
    O134     O        0.10597    0.87683    0.25378    1.000
    O135     O        0.54382    0.46698    0.29155    1.000
    O136     O        0.75259    0.53466    0.29567    1.000
    O137     O        0.65919    0.60655    0.33064    1.000
    O138     O        0.68547    0.67243    0.28093    1.000
    Al17     Al       0.42819    0.32776    0.29986    1.000
    P24      P        0.32774    0.90331    0.63304    1.000
    O139     O        0.65513    0.02077    0.61020    1.000
    O140     O        0.77263    0.21017    0.58712    1.000
    O141     O        0.21048    0.80032    0.62489    1.000
    O142     O        0.41925    0.86800    0.62901    1.000
    O143     O        0.32585    0.93989    0.66398    1.000
    O144     O        0.35213    0.00577    0.61427    1.000
    Al18     Al       0.09485    0.66110    0.63319    1.000
    P25      P        0.76336    0.75777    0.96637    1.000
    O145     O        0.64590    0.96770    0.94353    1.000
    O146     O        0.45650    0.89580    0.92045    1.000
    O147     O        0.86635    0.74350    0.95822    1.000
    O148     O        0.79867    0.88459    0.96234    1.000
    O149     O        0.72678    0.71930    0.99731    1.000
    O150     O        0.66090    0.67970    0.94760    1.000
    P26      P        0.43003    0.09110    0.29971    1.000
    O151     O        0.31257    0.30103    0.27686    1.000
    O152     O        0.12317    0.22913    0.25378    1.000
    O153     O        0.53302    0.07683    0.29155    1.000
    O154     O        0.46534    0.21792    0.29567    1.000
    O155     O        0.39345    0.05263    0.33064    1.000
    O156     O        0.32757    0.01303    0.28093    1.000
    P27      P        0.09669    0.42444    0.63304    1.000
    O157     O        0.97923    0.63437    0.61020    1.000
    O158     O        0.78983    0.56247    0.58712    1.000
    O159     O        0.19968    0.41017    0.62489    1.000
    O160     O        0.13200    0.55126    0.62901    1.000
    O161     O        0.06011    0.38597    0.66398    1.000
    O162     O        0.99423    0.34637    0.61427    1.000
    P28      P        0.00559    0.24223    0.53363    1.000
    Mg10     Mg       0.76709    0.00557    0.53348    1.000
    O163     O        0.67820    0.03230    0.55647    1.000
    O164     O        0.56070    0.10420    0.57955    1.000
    O165     O        0.12285    0.25650    0.54178    1.000
    O166     O        0.91408    0.11541    0.53766    1.000
    O167     O        0.00748    0.28070    0.50269    1.000
    O168     O        0.98120    0.32030    0.55240    1.000
    Al19     Al       0.23848    0.23291    0.53348    1.000
    P29      P        0.67226    0.57556    0.86696    1.000
    Mg11     Mg       0.43376    0.33890    0.86681    1.000
    O169     O        0.34487    0.36563    0.88980    1.000
    O170     O        0.22737    0.43753    0.91288    1.000
    O171     O        0.78952    0.58983    0.87511    1.000
    O172     O        0.58075    0.44874    0.87099    1.000
    O173     O        0.67415    0.61403    0.83602    1.000
    O174     O        0.64787    0.65363    0.88573    1.000
    Al20     Al       0.90515    0.56624    0.86681    1.000
    P30      P        0.33892    0.90890    0.20029    1.000
    Mg12     Mg       0.10042    0.67224    0.20014    1.000
    O175     O        0.01153    0.69897    0.22314    1.000
    O176     O        0.89403    0.77087    0.24622    1.000
    O177     O        0.45618    0.92317    0.20845    1.000
    O178     O        0.24741    0.78208    0.20433    1.000
    O179     O        0.34081    0.94737    0.16936    1.000
    O180     O        0.31453    0.98697    0.21907    1.000
    Al21     Al       0.57181    0.89958    0.20014    1.000
    P31      P        0.23664    0.99441    0.53363    1.000
    O181     O        0.35410    0.32180    0.55647    1.000
    O182     O        0.54350    0.43930    0.57955    1.000
    O183     O        0.13365    0.87715    0.54178    1.000
    O184     O        0.20133    0.08592    0.53766    1.000
    O185     O        0.27322    0.99252    0.50269    1.000
    O186     O        0.33910    0.01880    0.55240    1.000
    Al22     Al       0.99443    0.76152    0.53348    1.000
    P32      P        0.90331    0.32774    0.86696    1.000
    O187     O        0.02077    0.65513    0.88980    1.000
    O188     O        0.21017    0.77263    0.91288    1.000
    O189     O        0.80032    0.21048    0.87511    1.000
    O190     O        0.86800    0.41925    0.87099    1.000
    O191     O        0.93989    0.32585    0.83602    1.000
    O192     O        0.00577    0.35213    0.88573    1.000
    Al23     Al       0.66110    0.09485    0.86681    1.000
    P33      P        0.56997    0.66108    0.20029    1.000
    O193     O        0.68743    0.98847    0.22314    1.000
    O194     O        0.87683    0.10597    0.24622    1.000
    O195     O        0.46698    0.54382    0.20845    1.000
    O196     O        0.53466    0.75259    0.20433    1.000
    O197     O        0.60655    0.65919    0.16936    1.000
    O198     O        0.67243    0.68547    0.21907    1.000
    Al24     Al       0.32776    0.42819    0.20014    1.000
    P34      P        0.75777    0.76336    0.53363    1.000
    O199     O        0.96770    0.64590    0.55647    1.000
    O200     O        0.89580    0.45650    0.57955    1.000
    O201     O        0.74350    0.86635    0.54178    1.000
    O202     O        0.88459    0.79867    0.53766    1.000
    O203     O        0.71930    0.72678    0.50269    1.000
    O204     O        0.67970    0.66090    0.55240    1.000
    P35      P        0.42444    0.09669    0.86696    1.000
    O205     O        0.63437    0.97923    0.88980    1.000
    O206     O        0.56247    0.78983    0.91288    1.000
    O207     O        0.41017    0.19968    0.87511    1.000
    O208     O        0.55126    0.13200    0.87099    1.000
    O209     O        0.38597    0.06011    0.83602    1.000
    O210     O        0.34637    0.99423    0.88573    1.000
    P36      P        0.09110    0.43003    0.20029    1.000
    O211     O        0.30103    0.31257    0.22314    1.000
    O212     O        0.22913    0.12317    0.24622    1.000
    O213     O        0.07683    0.53302    0.20845    1.000
    O214     O        0.21792    0.46534    0.20433    1.000
    O215     O        0.05263    0.39345    0.16936    1.000
    O216     O        0.01303    0.32757    0.21907    1.000
    P37      P        0.90811    0.33333    0.08333    1.000
    P38      P        0.66667    0.57477    0.08333    1.000
    P39      P        0.33333    0.90811    0.41667    1.000
    P40      P        0.42523    0.09189    0.08333    1.000
    P41      P        0.75856    0.75856    0.75000    1.000
    P42      P        0.00000    0.24144    0.75000    1.000
    P43      P        0.57477    0.66667    0.41667    1.000
    P44      P        0.24144    0.00000    0.75000    1.000
    P45      P        0.09189    0.42523    0.41667    1.000
    P46      P        0.09189    0.66667    0.91667    1.000
    P47      P        0.75856    0.00000    0.25000    1.000
    P48      P        0.42523    0.33333    0.58333    1.000
    P49      P        0.33333    0.42523    0.91667    1.000
    P50      P        0.00000    0.75856    0.25000    1.000
    P51      P        0.57477    0.90811    0.91667    1.000
    P52      P        0.24144    0.24144    0.25000    1.000
    P53      P        0.66667    0.09189    0.58333    1.000
    P54      P        0.90811    0.57477    0.58333    1.000
    Mg13     Mg       0.66667    0.08946    0.08333    1.000
    Mg14     Mg       0.91054    0.57720    0.08333    1.000
    Mg15     Mg       0.42280    0.33333    0.08333    1.000
    Mg16     Mg       0.08946    0.66667    0.41667    1.000
    Mg17     Mg       0.75613    0.00000    0.75000    1.000
    Mg18     Mg       0.57720    0.91054    0.41667    1.000
    Mg19     Mg       0.24387    0.24387    0.75000    1.000
    Mg20     Mg       0.33333    0.42280    0.41667    1.000
    Mg21     Mg       0.00000    0.75613    0.75000    1.000
    Mg22     Mg       0.33333    0.91054    0.91667    1.000
    Mg23     Mg       0.00000    0.24387    0.25000    1.000
    Mg24     Mg       0.08946    0.42280    0.91667    1.000
    Mg25     Mg       0.75613    0.75613    0.25000    1.000
    Mg26     Mg       0.57720    0.66667    0.91667    1.000
    Mg27     Mg       0.24387    0.00000    0.25000    1.000
    Mg28     Mg       0.91054    0.33333    0.58333    1.000
    Mg29     Mg       0.42280    0.08946    0.58333    1.000
    Mg30     Mg       0.66667    0.57720    0.58333    1.000
