# CIF file generated by openbabel 3.1.0, see https://openbabel.org
data_I
_chemical_name_common 'image0'
_cell_length_a 11.3504
_cell_length_b 12.1923
_cell_length_c 16.1827
_cell_angle_alpha 90
_cell_angle_beta 130.491
_cell_angle_gamma 90
_space_group_name_H-M_alt 'P 1'
_space_group_name_Hall 'P 1'
loop_
    _symmetry_equiv_pos_as_xyz
    x,y,z
loop_
    _atom_site_label
    _atom_site_type_symbol
    _atom_site_fract_x
    _atom_site_fract_y
    _atom_site_fract_z
    _atom_site_occupancy
    C1       C        0.14270    0.88482    0.76806    1.000
    C2       C        0.08520    0.79696    0.69817    1.000
    H1       H        0.98260    0.77540    0.65830    1.000
    C3       C        0.18120    0.74074    0.68764    1.000
    C4       C        0.11960    0.64502    0.61218    1.000
    C5       C        0.33390    0.77456    0.74681    1.000
    H2       H        0.39830    0.73730    0.73960    1.000
    C6       C        0.39040    0.86353    0.81638    1.000
    C7       C        0.29510    0.91824    0.82787    1.000
    H3       H        0.33310    0.97720    0.87550    1.000
    C8       C        0.55420    0.90060    0.87800    1.000
    O1       O        0.07500    0.92386    0.88926    1.000
    O2       O        0.86740    0.92600    0.69668    1.000
    O3       O        0.05510    0.07284    0.78410    1.000
    O4       O        0.21706    0.57836    0.62812    1.000
    O5       O        0.97630    0.63849    0.53821    1.000
    O6       O        0.63770    0.85459    0.86589    1.000
    O7       O        0.60420    0.98007    0.94123    1.000
    S1       S        0.02350    0.95935    0.78361    1.000
    Zn1      Zn       0.17931    0.02369    0.01883    1.000
    C9       C        0.85730    0.38482    0.73194    1.000
    C10      C        0.91480    0.29696    0.80183    1.000
    H4       H        0.01740    0.27540    0.84170    1.000
    C11      C        0.81880    0.24074    0.81236    1.000
    C12      C        0.88040    0.14502    0.88782    1.000
    C13      C        0.66610    0.27456    0.75319    1.000
    H5       H        0.60170    0.23730    0.76040    1.000
    C14      C        0.60960    0.36353    0.68362    1.000
    C15      C        0.70490    0.41824    0.67213    1.000
    H6       H        0.66690    0.47720    0.62450    1.000
    C16      C        0.44580    0.40060    0.62200    1.000
    O8       O        0.92500    0.42386    0.61074    1.000
    O9       O        0.13260    0.42600    0.80332    1.000
    O10      O        0.94490    0.57284    0.71590    1.000
    O11      O        0.78294    0.07836    0.87188    1.000
    O12      O        0.02370    0.13849    0.96179    1.000
    O13      O        0.36230    0.35459    0.63411    1.000
    O14      O        0.39580    0.48007    0.55877    1.000
    S2       S        0.97650    0.45935    0.71639    1.000
    Zn2      Zn       0.82069    0.52369    0.48117    1.000
    C17      C        0.85730    0.11518    0.23194    1.000
    C18      C        0.91480    0.20304    0.30183    1.000
    H7       H        0.01740    0.22460    0.34170    1.000
    C19      C        0.81880    0.25926    0.31236    1.000
    C20      C        0.88040    0.35498    0.38782    1.000
    C21      C        0.66610    0.22544    0.25319    1.000
    H8       H        0.60170    0.26270    0.26040    1.000
    C22      C        0.60960    0.13647    0.18362    1.000
    C23      C        0.70490    0.08176    0.17213    1.000
    H9       H        0.66690    0.02280    0.12450    1.000
    C24      C        0.44580    0.09940    0.12200    1.000
    O15      O        0.92500    0.07614    0.11074    1.000
    O16      O        0.13260    0.07400    0.30332    1.000
    O17      O        0.94490    0.92716    0.21590    1.000
    O18      O        0.78294    0.42164    0.37188    1.000
    O19      O        0.02370    0.36151    0.46179    1.000
    O20      O        0.36230    0.14541    0.13411    1.000
    O21      O        0.39580    0.01993    0.05877    1.000
    S3       S        0.97650    0.04065    0.21639    1.000
    Zn3      Zn       0.82069    0.97631    0.98117    1.000
    C25      C        0.14270    0.61518    0.26806    1.000
    C26      C        0.08520    0.70304    0.19817    1.000
    H10      H        0.98260    0.72460    0.15830    1.000
    C27      C        0.18120    0.75926    0.18764    1.000
    C28      C        0.11960    0.85498    0.11218    1.000
    C29      C        0.33390    0.72544    0.24681    1.000
    H11      H        0.39830    0.76270    0.23960    1.000
    C30      C        0.39040    0.63647    0.31638    1.000
    C31      C        0.29510    0.58176    0.32787    1.000
    H12      H        0.33310    0.52280    0.37550    1.000
    C32      C        0.55420    0.59940    0.37800    1.000
    O22      O        0.07500    0.57614    0.38926    1.000
    O23      O        0.86740    0.57400    0.19668    1.000
    O24      O        0.05510    0.42716    0.28410    1.000
    O25      O        0.21706    0.92164    0.12812    1.000
    O26      O        0.97630    0.86151    0.03821    1.000
    O27      O        0.63770    0.64541    0.36589    1.000
    O28      O        0.60420    0.51993    0.44123    1.000
    S4       S        0.02350    0.54065    0.28361    1.000
    Zn4      Zn       0.17931    0.47631    0.51883    1.000
