# CIF file generated by openbabel 3.1.0, see https://openbabel.org
data_I
_chemical_name_common 'image0'
_cell_length_a 24.5907
_cell_length_b 17.8811
_cell_length_c 25.0765
_cell_angle_alpha 90
_cell_angle_beta 104.335
_cell_angle_gamma 90
_space_group_name_H-M_alt 'P 1'
_space_group_name_Hall 'P 1'
loop_
    _symmetry_equiv_pos_as_xyz
    x,y,z
loop_
    _atom_site_label
    _atom_site_type_symbol
    _atom_site_fract_x
    _atom_site_fract_y
    _atom_site_fract_z
    _atom_site_occupancy
    Dy1      Dy       0.40838    0.42356    0.74179    1.000
    Dy2      Dy       0.71556    0.80903    0.05628    1.000
    C1       C        0.52257    0.59365    0.86347    1.000
    C2       C        0.51004    0.26961    0.86917    1.000
    C3       C        0.74955    0.56417    0.08744    1.000
    C4       C        0.57725    0.61812    0.88431    1.000
    H1       H        0.60620    0.59590    0.87210    1.000
    C5       C        0.45774    0.26022    0.88029    1.000
    H2       H        0.42820    0.29180    0.86420    1.000
    C6       C        0.71212    0.57898    0.11952    1.000
    H3       H        0.69410    0.62510    0.11700    1.000
    C7       C        0.58990    0.67590    0.92358    1.000
    C8       C        0.44973    0.20332    0.91568    1.000
    C9       C        0.70165    0.52458    0.15549    1.000
    C10      C        0.54562    0.70859    0.94094    1.000
    H4       H        0.55290    0.74690    0.96680    1.000
    C11      C        0.49347    0.15587    0.93972    1.000
    H5       H        0.48780    0.11720    0.96260    1.000
    C12      C        0.72757    0.45543    0.15861    1.000
    H6       H        0.72080    0.41930    0.18290    1.000
    C13      C        0.49068    0.68427    0.91972    1.000
    C14      C        0.54585    0.16654    0.92935    1.000
    C15      C        0.76373    0.44014    0.12532    1.000
    C16      C        0.47884    0.62580    0.88176    1.000
    H7       H        0.44230    0.60850    0.86880    1.000
    C17      C        0.55441    0.22456    0.89444    1.000
    H8       H        0.58980    0.23250    0.88840    1.000
    C18      C        0.77504    0.49489    0.08993    1.000
    H9       H        0.79970    0.48480    0.06800    1.000
    C19      C        0.50964    0.53066    0.82195    1.000
    C20      C        0.51672    0.32673    0.82717    1.000
    C21      C        0.76127    0.62203    0.04791    1.000
    C22      C        0.64897    0.70109    0.94730    1.000
    C23      C        0.39206    0.19212    0.92528    1.000
    C24      C        0.66035    0.53976    0.18969    1.000
    C25      C        0.44473    0.71960    0.93709    1.000
    C26      C        0.59190    0.11786    0.95337    1.000
    C27      C        0.78817    0.36642    0.12612    1.000
    N1       N        0.40804    0.74580    0.94993    1.000
    N2       N        0.62860    0.07839    0.97152    1.000
    N3       N        0.80734    0.30793    0.12586    1.000
    O1       O        0.46009    0.50797    0.80864    1.000
    O2       O        0.47219    0.34834    0.79458    1.000
    O3       O        0.74535    0.68832    0.05169    1.000
    O4       O        0.54977    0.50711    0.80409    1.000
    O5       O        0.56502    0.34629    0.82569    1.000
    O6       O        0.78588    0.60037    0.01216    1.000
    O7       O        0.68730    0.66780    0.93224    1.000
    O8       O        0.35412    0.23873    0.90356    1.000
    O9       O        0.62665    0.59302    0.17561    1.000
    O10      O        0.65447    0.75451    0.98026    1.000
    O11      O        0.38353    0.13822    0.95436    1.000
    O12      O        0.66177    0.49957    0.23152    1.000
    Dy3      Dy       0.90838    0.92356    0.74179    1.000
    Dy4      Dy       0.21556    0.30903    0.05628    1.000
    C28      C        0.02257    0.09365    0.86347    1.000
    C29      C        0.01004    0.76961    0.86917    1.000
    C30      C        0.24955    0.06417    0.08744    1.000
    C31      C        0.07725    0.11812    0.88431    1.000
    H10      H        0.10620    0.09590    0.87210    1.000
    C32      C        0.95774    0.76022    0.88029    1.000
    H11      H        0.92820    0.79180    0.86420    1.000
    C33      C        0.21212    0.07898    0.11952    1.000
    H12      H        0.19410    0.12510    0.11700    1.000
    C34      C        0.08990    0.17590    0.92358    1.000
    C35      C        0.94973    0.70332    0.91568    1.000
    C36      C        0.20165    0.02458    0.15549    1.000
    C37      C        0.04562    0.20859    0.94094    1.000
    H13      H        0.05290    0.24690    0.96680    1.000
    C38      C        0.99347    0.65587    0.93972    1.000
    H14      H        0.98780    0.61720    0.96260    1.000
    C39      C        0.22757    0.95543    0.15861    1.000
    H15      H        0.22080    0.91930    0.18290    1.000
    C40      C        0.99068    0.18427    0.91972    1.000
    C41      C        0.04585    0.66654    0.92935    1.000
    C42      C        0.26373    0.94014    0.12532    1.000
    C43      C        0.97884    0.12580    0.88176    1.000
    H16      H        0.94230    0.10850    0.86880    1.000
    C44      C        0.05441    0.72456    0.89444    1.000
    H17      H        0.08980    0.73250    0.88840    1.000
    C45      C        0.27504    0.99489    0.08993    1.000
    H18      H        0.29970    0.98480    0.06800    1.000
    C46      C        0.00964    0.03066    0.82195    1.000
    C47      C        0.01672    0.82673    0.82717    1.000
    C48      C        0.26127    0.12203    0.04791    1.000
    C49      C        0.14897    0.20109    0.94730    1.000
    C50      C        0.89206    0.69212    0.92528    1.000
    C51      C        0.16035    0.03976    0.18969    1.000
    C52      C        0.94473    0.21960    0.93709    1.000
    C53      C        0.09190    0.61786    0.95337    1.000
    C54      C        0.28817    0.86642    0.12612    1.000
    N4       N        0.90804    0.24580    0.94993    1.000
    N5       N        0.12860    0.57839    0.97152    1.000
    N6       N        0.30734    0.80793    0.12586    1.000
    O13      O        0.96009    0.00797    0.80864    1.000
    O14      O        0.97219    0.84834    0.79458    1.000
    O15      O        0.24535    0.18832    0.05169    1.000
    O16      O        0.04977    0.00711    0.80409    1.000
    O17      O        0.06502    0.84629    0.82569    1.000
    O18      O        0.28588    0.10037    0.01216    1.000
    O19      O        0.18730    0.16780    0.93224    1.000
    O20      O        0.85412    0.73873    0.90356    1.000
    O21      O        0.12665    0.09302    0.17561    1.000
    O22      O        0.15447    0.25451    0.98026    1.000
    O23      O        0.88353    0.63822    0.95436    1.000
    O24      O        0.16177    0.99957    0.23152    1.000
    Dy5      Dy       0.59162    0.42356    0.75821    1.000
    Dy6      Dy       0.28444    0.80903    0.44372    1.000
    C55      C        0.47743    0.59365    0.63653    1.000
    C56      C        0.48996    0.26961    0.63083    1.000
    C57      C        0.25045    0.56417    0.41256    1.000
    C58      C        0.42275    0.61812    0.61569    1.000
    H19      H        0.39380    0.59590    0.62790    1.000
    C59      C        0.54226    0.26022    0.61971    1.000
    H20      H        0.57180    0.29180    0.63580    1.000
    C60      C        0.28788    0.57898    0.38048    1.000
    H21      H        0.30590    0.62510    0.38300    1.000
    C61      C        0.41010    0.67590    0.57642    1.000
    C62      C        0.55027    0.20332    0.58432    1.000
    C63      C        0.29835    0.52458    0.34451    1.000
    C64      C        0.45438    0.70859    0.55906    1.000
    H22      H        0.44710    0.74690    0.53320    1.000
    C65      C        0.50653    0.15587    0.56028    1.000
    H23      H        0.51220    0.11720    0.53740    1.000
    C66      C        0.27243    0.45543    0.34139    1.000
    H24      H        0.27920    0.41930    0.31710    1.000
    C67      C        0.50932    0.68427    0.58028    1.000
    C68      C        0.45415    0.16654    0.57065    1.000
    C69      C        0.23627    0.44014    0.37468    1.000
    C70      C        0.52116    0.62580    0.61824    1.000
    H25      H        0.55770    0.60850    0.63120    1.000
    C71      C        0.44559    0.22456    0.60556    1.000
    H26      H        0.41020    0.23250    0.61160    1.000
    C72      C        0.22496    0.49489    0.41007    1.000
    H27      H        0.20030    0.48480    0.43200    1.000
    C73      C        0.49036    0.53066    0.67805    1.000
    C74      C        0.48328    0.32673    0.67283    1.000
    C75      C        0.23873    0.62203    0.45209    1.000
    C76      C        0.35103    0.70109    0.55270    1.000
    C77      C        0.60794    0.19212    0.57472    1.000
    C78      C        0.33965    0.53976    0.31031    1.000
    C79      C        0.55527    0.71960    0.56291    1.000
    C80      C        0.40810    0.11786    0.54663    1.000
    C81      C        0.21183    0.36642    0.37388    1.000
    N7       N        0.59196    0.74580    0.55007    1.000
    N8       N        0.37140    0.07839    0.52848    1.000
    N9       N        0.19266    0.30793    0.37414    1.000
    O25      O        0.53991    0.50797    0.69136    1.000
    O26      O        0.52781    0.34834    0.70542    1.000
    O27      O        0.25465    0.68832    0.44831    1.000
    O28      O        0.45023    0.50711    0.69591    1.000
    O29      O        0.43498    0.34629    0.67431    1.000
    O30      O        0.21412    0.60037    0.48784    1.000
    O31      O        0.31270    0.66780    0.56776    1.000
    O32      O        0.64588    0.23873    0.59644    1.000
    O33      O        0.37335    0.59302    0.32439    1.000
    O34      O        0.34553    0.75451    0.51974    1.000
    O35      O        0.61647    0.13822    0.54564    1.000
    O36      O        0.33823    0.49957    0.26848    1.000
    Dy7      Dy       0.09162    0.92356    0.75821    1.000
    Dy8      Dy       0.78444    0.30903    0.44372    1.000
    C82      C        0.97743    0.09365    0.63653    1.000
    C83      C        0.98996    0.76961    0.63083    1.000
    C84      C        0.75045    0.06417    0.41256    1.000
    C85      C        0.92275    0.11812    0.61569    1.000
    H28      H        0.89380    0.09590    0.62790    1.000
    C86      C        0.04226    0.76022    0.61971    1.000
    H29      H        0.07180    0.79180    0.63580    1.000
    C87      C        0.78788    0.07898    0.38048    1.000
    H30      H        0.80590    0.12510    0.38300    1.000
    C88      C        0.91010    0.17590    0.57642    1.000
    C89      C        0.05027    0.70332    0.58432    1.000
    C90      C        0.79835    0.02458    0.34451    1.000
    C91      C        0.95438    0.20859    0.55906    1.000
    H31      H        0.94710    0.24690    0.53320    1.000
    C92      C        0.00653    0.65587    0.56028    1.000
    H32      H        0.01220    0.61720    0.53740    1.000
    C93      C        0.77243    0.95543    0.34139    1.000
    H33      H        0.77920    0.91930    0.31710    1.000
    C94      C        0.00932    0.18427    0.58028    1.000
    C95      C        0.95415    0.66654    0.57065    1.000
    C96      C        0.73627    0.94014    0.37468    1.000
    C97      C        0.02116    0.12580    0.61824    1.000
    H34      H        0.05770    0.10850    0.63120    1.000
    C98      C        0.94559    0.72456    0.60556    1.000
    H35      H        0.91020    0.73250    0.61160    1.000
    C99      C        0.72496    0.99489    0.41007    1.000
    H36      H        0.70030    0.98480    0.43200    1.000
    C100     C        0.99036    0.03066    0.67805    1.000
    C101     C        0.98328    0.82673    0.67283    1.000
    C102     C        0.73873    0.12203    0.45209    1.000
    C103     C        0.85103    0.20109    0.55270    1.000
    C104     C        0.10794    0.69212    0.57472    1.000
    C105     C        0.83965    0.03976    0.31031    1.000
    C106     C        0.05527    0.21960    0.56291    1.000
    C107     C        0.90810    0.61786    0.54663    1.000
    C108     C        0.71183    0.86642    0.37388    1.000
    N10      N        0.09196    0.24580    0.55007    1.000
    N11      N        0.87140    0.57839    0.52848    1.000
    N12      N        0.69266    0.80793    0.37414    1.000
    O37      O        0.03991    0.00797    0.69136    1.000
    O38      O        0.02781    0.84834    0.70542    1.000
    O39      O        0.75465    0.18832    0.44831    1.000
    O40      O        0.95023    0.00711    0.69591    1.000
    O41      O        0.93498    0.84629    0.67431    1.000
    O42      O        0.71412    0.10037    0.48784    1.000
    O43      O        0.81270    0.16780    0.56776    1.000
    O44      O        0.14588    0.73873    0.59644    1.000
    O45      O        0.87335    0.09302    0.32439    1.000
    O46      O        0.84553    0.25451    0.51974    1.000
    O47      O        0.11647    0.63822    0.54564    1.000
    O48      O        0.83823    0.99957    0.26848    1.000
    Dy9      Dy       0.59162    0.57644    0.25821    1.000
    Dy10     Dy       0.28444    0.19097    0.94372    1.000
    C109     C        0.47743    0.40635    0.13653    1.000
    C110     C        0.48996    0.73039    0.13083    1.000
    C111     C        0.25045    0.43583    0.91256    1.000
    C112     C        0.42275    0.38188    0.11569    1.000
    H37      H        0.39380    0.40410    0.12790    1.000
    C113     C        0.54226    0.73978    0.11971    1.000
    H38      H        0.57180    0.70820    0.13580    1.000
    C114     C        0.28788    0.42102    0.88048    1.000
    H39      H        0.30590    0.37490    0.88300    1.000
    C115     C        0.41010    0.32410    0.07642    1.000
    C116     C        0.55027    0.79668    0.08432    1.000
    C117     C        0.29835    0.47542    0.84451    1.000
    C118     C        0.45438    0.29141    0.05906    1.000
    H40      H        0.44710    0.25310    0.03320    1.000
    C119     C        0.50653    0.84413    0.06028    1.000
    H41      H        0.51220    0.88280    0.03740    1.000
    C120     C        0.27243    0.54457    0.84139    1.000
    H42      H        0.27920    0.58070    0.81710    1.000
    C121     C        0.50932    0.31573    0.08028    1.000
    C122     C        0.45415    0.83346    0.07065    1.000
    C123     C        0.23627    0.55986    0.87468    1.000
    C124     C        0.52116    0.37420    0.11824    1.000
    H43      H        0.55770    0.39150    0.13120    1.000
    C125     C        0.44559    0.77544    0.10556    1.000
    H44      H        0.41020    0.76750    0.11160    1.000
    C126     C        0.22496    0.50511    0.91007    1.000
    H45      H        0.20030    0.51520    0.93200    1.000
    C127     C        0.49036    0.46934    0.17805    1.000
    C128     C        0.48328    0.67327    0.17283    1.000
    C129     C        0.23873    0.37797    0.95209    1.000
    C130     C        0.35103    0.29891    0.05270    1.000
    C131     C        0.60794    0.80788    0.07472    1.000
    C132     C        0.33965    0.46024    0.81031    1.000
    C133     C        0.55527    0.28040    0.06291    1.000
    C134     C        0.40810    0.88214    0.04663    1.000
    C135     C        0.21183    0.63358    0.87388    1.000
    N13      N        0.59196    0.25420    0.05007    1.000
    N14      N        0.37140    0.92161    0.02848    1.000
    N15      N        0.19266    0.69207    0.87414    1.000
    O49      O        0.53991    0.49203    0.19136    1.000
    O50      O        0.52781    0.65166    0.20542    1.000
    O51      O        0.25465    0.31168    0.94831    1.000
    O52      O        0.45023    0.49289    0.19591    1.000
    O53      O        0.43498    0.65371    0.17431    1.000
    O54      O        0.21412    0.39963    0.98784    1.000
    O55      O        0.31270    0.33220    0.06776    1.000
    O56      O        0.64588    0.76127    0.09644    1.000
    O57      O        0.37335    0.40698    0.82439    1.000
    O58      O        0.34553    0.24549    0.01974    1.000
    O59      O        0.61647    0.86178    0.04564    1.000
    O60      O        0.33823    0.50043    0.76848    1.000
    Dy11     Dy       0.09162    0.07644    0.25821    1.000
    Dy12     Dy       0.78444    0.69097    0.94372    1.000
    C136     C        0.97743    0.90635    0.13653    1.000
    C137     C        0.98996    0.23039    0.13083    1.000
    C138     C        0.75045    0.93583    0.91256    1.000
    C139     C        0.92275    0.88188    0.11569    1.000
    H46      H        0.89380    0.90410    0.12790    1.000
    C140     C        0.04226    0.23978    0.11971    1.000
    H47      H        0.07180    0.20820    0.13580    1.000
    C141     C        0.78788    0.92102    0.88048    1.000
    H48      H        0.80590    0.87490    0.88300    1.000
    C142     C        0.91010    0.82410    0.07642    1.000
    C143     C        0.05027    0.29668    0.08432    1.000
    C144     C        0.79835    0.97542    0.84451    1.000
    C145     C        0.95438    0.79141    0.05906    1.000
    H49      H        0.94710    0.75310    0.03320    1.000
    C146     C        0.00653    0.34413    0.06028    1.000
    H50      H        0.01220    0.38280    0.03740    1.000
    C147     C        0.77243    0.04457    0.84139    1.000
    H51      H        0.77920    0.08070    0.81710    1.000
    C148     C        0.00932    0.81573    0.08028    1.000
    C149     C        0.95415    0.33346    0.07065    1.000
    C150     C        0.73627    0.05986    0.87468    1.000
    C151     C        0.02116    0.87420    0.11824    1.000
    H52      H        0.05770    0.89150    0.13120    1.000
    C152     C        0.94559    0.27544    0.10556    1.000
    H53      H        0.91020    0.26750    0.11160    1.000
    C153     C        0.72496    0.00511    0.91007    1.000
    H54      H        0.70030    0.01520    0.93200    1.000
    C154     C        0.99036    0.96934    0.17805    1.000
    C155     C        0.98328    0.17327    0.17283    1.000
    C156     C        0.73873    0.87797    0.95209    1.000
    C157     C        0.85103    0.79891    0.05270    1.000
    C158     C        0.10794    0.30788    0.07472    1.000
    C159     C        0.83965    0.96024    0.81031    1.000
    C160     C        0.05527    0.78040    0.06291    1.000
    C161     C        0.90810    0.38214    0.04663    1.000
    C162     C        0.71183    0.13358    0.87388    1.000
    N16      N        0.09196    0.75420    0.05007    1.000
    N17      N        0.87140    0.42161    0.02848    1.000
    N18      N        0.69266    0.19207    0.87414    1.000
    O61      O        0.03991    0.99203    0.19136    1.000
    O62      O        0.02781    0.15166    0.20542    1.000
    O63      O        0.75465    0.81168    0.94831    1.000
    O64      O        0.95023    0.99289    0.19591    1.000
    O65      O        0.93498    0.15371    0.17431    1.000
    O66      O        0.71412    0.89963    0.98784    1.000
    O67      O        0.81270    0.83220    0.06776    1.000
    O68      O        0.14588    0.26127    0.09644    1.000
    O69      O        0.87335    0.90698    0.82439    1.000
    O70      O        0.84553    0.74549    0.01974    1.000
    O71      O        0.11647    0.36178    0.04564    1.000
    O72      O        0.83823    0.00043    0.76848    1.000
    Dy13     Dy       0.40838    0.57644    0.24179    1.000
    Dy14     Dy       0.71556    0.19097    0.55628    1.000
    C163     C        0.52257    0.40635    0.36347    1.000
    C164     C        0.51004    0.73039    0.36917    1.000
    C165     C        0.74955    0.43583    0.58744    1.000
    C166     C        0.57725    0.38188    0.38431    1.000
    H55      H        0.60620    0.40410    0.37210    1.000
    C167     C        0.45774    0.73978    0.38029    1.000
    H56      H        0.42820    0.70820    0.36420    1.000
    C168     C        0.71212    0.42102    0.61952    1.000
    H57      H        0.69410    0.37490    0.61700    1.000
    C169     C        0.58990    0.32410    0.42358    1.000
    C170     C        0.44973    0.79668    0.41568    1.000
    C171     C        0.70165    0.47542    0.65549    1.000
    C172     C        0.54562    0.29141    0.44094    1.000
    H58      H        0.55290    0.25310    0.46680    1.000
    C173     C        0.49347    0.84413    0.43972    1.000
    H59      H        0.48780    0.88280    0.46260    1.000
    C174     C        0.72757    0.54457    0.65861    1.000
    H60      H        0.72080    0.58070    0.68290    1.000
    C175     C        0.49068    0.31573    0.41972    1.000
    C176     C        0.54585    0.83346    0.42935    1.000
    C177     C        0.76373    0.55986    0.62532    1.000
    C178     C        0.47884    0.37420    0.38176    1.000
    H61      H        0.44230    0.39150    0.36880    1.000
    C179     C        0.55441    0.77544    0.39444    1.000
    H62      H        0.58980    0.76750    0.38840    1.000
    C180     C        0.77504    0.50511    0.58993    1.000
    H63      H        0.79970    0.51520    0.56800    1.000
    C181     C        0.50964    0.46934    0.32195    1.000
    C182     C        0.51672    0.67327    0.32717    1.000
    C183     C        0.76127    0.37797    0.54791    1.000
    C184     C        0.64897    0.29891    0.44730    1.000
    C185     C        0.39206    0.80788    0.42528    1.000
    C186     C        0.66035    0.46024    0.68969    1.000
    C187     C        0.44473    0.28040    0.43709    1.000
    C188     C        0.59190    0.88214    0.45337    1.000
    C189     C        0.78817    0.63358    0.62612    1.000
    N19      N        0.40804    0.25420    0.44993    1.000
    N20      N        0.62860    0.92161    0.47152    1.000
    N21      N        0.80734    0.69207    0.62586    1.000
    O73      O        0.46009    0.49203    0.30864    1.000
    O74      O        0.47219    0.65166    0.29458    1.000
    O75      O        0.74535    0.31168    0.55169    1.000
    O76      O        0.54977    0.49289    0.30409    1.000
    O77      O        0.56502    0.65371    0.32569    1.000
    O78      O        0.78588    0.39963    0.51216    1.000
    O79      O        0.68730    0.33220    0.43224    1.000
    O80      O        0.35412    0.76127    0.40356    1.000
    O81      O        0.62665    0.40698    0.67561    1.000
    O82      O        0.65447    0.24549    0.48026    1.000
    O83      O        0.38353    0.86178    0.45436    1.000
    O84      O        0.66177    0.50043    0.73152    1.000
    Dy15     Dy       0.90838    0.07644    0.24179    1.000
    Dy16     Dy       0.21556    0.69097    0.55628    1.000
    C190     C        0.02257    0.90635    0.36347    1.000
    C191     C        0.01004    0.23039    0.36917    1.000
    C192     C        0.24955    0.93583    0.58744    1.000
    C193     C        0.07725    0.88188    0.38431    1.000
    H64      H        0.10620    0.90410    0.37210    1.000
    C194     C        0.95774    0.23978    0.38029    1.000
    H65      H        0.92820    0.20820    0.36420    1.000
    C195     C        0.21212    0.92102    0.61952    1.000
    H66      H        0.19410    0.87490    0.61700    1.000
    C196     C        0.08990    0.82410    0.42358    1.000
    C197     C        0.94973    0.29668    0.41568    1.000
    C198     C        0.20165    0.97542    0.65549    1.000
    C199     C        0.04562    0.79141    0.44094    1.000
    H67      H        0.05290    0.75310    0.46680    1.000
    C200     C        0.99347    0.34413    0.43972    1.000
    H68      H        0.98780    0.38280    0.46260    1.000
    C201     C        0.22757    0.04457    0.65861    1.000
    H69      H        0.22080    0.08070    0.68290    1.000
    C202     C        0.99068    0.81573    0.41972    1.000
    C203     C        0.04585    0.33346    0.42935    1.000
    C204     C        0.26373    0.05986    0.62532    1.000
    C205     C        0.97884    0.87420    0.38176    1.000
    H70      H        0.94230    0.89150    0.36880    1.000
    C206     C        0.05441    0.27544    0.39444    1.000
    H71      H        0.08980    0.26750    0.38840    1.000
    C207     C        0.27504    0.00511    0.58993    1.000
    H72      H        0.29970    0.01520    0.56800    1.000
    C208     C        0.00964    0.96934    0.32195    1.000
    C209     C        0.01672    0.17327    0.32717    1.000
    C210     C        0.26127    0.87797    0.54791    1.000
    C211     C        0.14897    0.79891    0.44730    1.000
    C212     C        0.89206    0.30788    0.42528    1.000
    C213     C        0.16035    0.96024    0.68969    1.000
    C214     C        0.94473    0.78040    0.43709    1.000
    C215     C        0.09190    0.38214    0.45337    1.000
    C216     C        0.28817    0.13358    0.62612    1.000
    N22      N        0.90804    0.75420    0.44993    1.000
    N23      N        0.12860    0.42161    0.47152    1.000
    N24      N        0.30734    0.19207    0.62586    1.000
    O85      O        0.96009    0.99203    0.30864    1.000
    O86      O        0.97219    0.15166    0.29458    1.000
    O87      O        0.24535    0.81168    0.55169    1.000
    O88      O        0.04977    0.99289    0.30409    1.000
    O89      O        0.06502    0.15371    0.32569    1.000
    O90      O        0.28588    0.89963    0.51216    1.000
    O91      O        0.18730    0.83220    0.43224    1.000
    O92      O        0.85412    0.26127    0.40356    1.000
    O93      O        0.12665    0.90698    0.67561    1.000
    O94      O        0.15447    0.74549    0.48026    1.000
    O95      O        0.88353    0.36178    0.45436    1.000
    O96      O        0.16177    0.00043    0.73152    1.000
