# CIF file generated by openbabel 3.1.0, see https://openbabel.org
data_I
_chemical_name_common 'image0'
_cell_length_a 17.353
_cell_length_b 30.453
_cell_length_c 17.511
_cell_angle_alpha 90
_cell_angle_beta 119.547
_cell_angle_gamma 90
_space_group_name_H-M_alt 'P 1'
_space_group_name_Hall 'P 1'
loop_
    _symmetry_equiv_pos_as_xyz
    x,y,z
loop_
    _atom_site_label
    _atom_site_type_symbol
    _atom_site_fract_x
    _atom_site_fract_y
    _atom_site_fract_z
    _atom_site_occupancy
    C1       C        0.84170    0.84360    0.23250    1.000
    C2       C        0.89610    0.77340    0.29380    1.000
    H1       H        0.93790    0.78900    0.34220    1.000
    C3       C        0.83560    0.79400    0.22370    1.000
    C4       C        0.60660    0.84416    0.26430    1.000
    C5       C        0.60340    0.79610    0.26280    1.000
    C6       C        0.62020    0.77204    0.34160    1.000
    H2       H        0.63090    0.78730    0.39190    1.000
    C7       C        0.33980    0.84576    0.23580    1.000
    C8       C        0.40740    0.77420    0.30500    1.000
    H3       H        0.45240    0.78900    0.35250    1.000
    C9       C        0.34680    0.79662    0.24080    1.000
    C10      C        0.10430    0.84481    0.26710    1.000
    C11      C        0.10690    0.79520    0.26960    1.000
    C12      C        0.11690    0.77170    0.34770    1.000
    H4       H        0.12310    0.78720    0.39620    1.000
    C13      C        0.84770    0.99110    0.19050    1.000
    C14      C        0.77150    0.01525    0.11950    1.000
    C15      C        0.78070    0.05059    0.07470    1.000
    H5       H        0.83640    0.06270    0.09340    1.000
    C16      C        0.70800    0.06770    0.00310    1.000
    H6       H        0.71370    0.08990    0.96960    1.000
    C17      C        0.62430    0.05060    0.98190    1.000
    C18      C        0.62281    0.01860    0.03900    1.000
    H7       H        0.56810    0.01130    0.03320    1.000
    C19      C        0.54040    0.06600    0.90430    1.000
    C20      C        0.86440    0.93760    0.40220    1.000
    C21      C        0.85360    0.95329    0.47780    1.000
    C22      C        0.79430    0.93460    0.50030    1.000
    H8       H        0.75820    0.91130    0.46830    1.000
    C23      C        0.79060    0.95210    0.57350    1.000
    H9       H        0.75250    0.93980    0.59070    1.000
    C24      C        0.84370    0.98760    0.61960    1.000
    C25      C        0.91210    0.98715    0.53530    1.000
    H10      H        0.95720    0.99730    0.52580    1.000
    C26      C        0.83620    0.00920    0.68970    1.000
    C27      C        0.66170    0.99030    0.31080    1.000
    C28      C        0.65510    0.01580    0.38150    1.000
    C29      C        0.70360    0.05080    0.42150    1.000
    H11      H        0.73840    0.06440    0.40160    1.000
    C30      C        0.70030    0.06660    0.49640    1.000
    H12      H        0.73860    0.08900    0.52970    1.000
    C31      C        0.64260    0.04990    0.52060    1.000
    C32      C        0.58960    0.01393    0.46820    1.000
    H13      H        0.54780    0.00250    0.48120    1.000
    C33      C        0.63910    0.06597    0.59710    1.000
    C34      C        0.34840    0.98716    0.18830    1.000
    C35      C        0.27040    0.01140    0.12230    1.000
    C36      C        0.27930    0.05042    0.07550    1.000
    H14      H        0.33350    0.06410    0.09370    1.000
    C37      C        0.20390    0.06462    0.00500    1.000
    H15      H        0.20860    0.08760    0.97240    1.000
    C38      C        0.12180    0.04800    0.97800    1.000
    C39      C        0.12180    0.01342    0.03270    1.000
    H16      H        0.06750    0.00390    0.02520    1.000
    C40      C        0.03880    0.06310    0.90660    1.000
    N1       N        0.69510    0.99767    0.10120    1.000
    N2       N        0.90480    0.00368    0.59790    1.000
    N3       N        0.59580    0.99532    0.40100    1.000
    N4       N        0.19500    0.99393    0.09410    1.000
    Nd1      Nd       0.99433    0.92855    0.30436    1.000
    Nd2      Nd       0.69020    0.92928    0.19402    1.000
    Nd3      Nd       0.49622    0.92810    0.30522    1.000
    Nd4      Nd       0.18938    0.92687    0.19359    1.000
    O1       O        0.90650    0.85998    0.30250    1.000
    O2       O        0.78390    0.86543    0.17030    1.000
    O3       O        0.63210    0.86363    0.21570    1.000
    O4       O        0.59170    0.86374    0.31860    1.000
    O5       O        0.41160    0.86314    0.28430    1.000
    O6       O        0.26860    0.86092    0.18460    1.000
    O7       O        0.12500    0.86143    0.21660    1.000
    O8       O        0.09280    0.86592    0.32240    1.000
    O9       O        0.92940    0.00261    0.21670    1.000
    O10      O        0.83310    0.95479    0.21560    1.000
    O11      O        0.54120    0.08757    0.84480    1.000
    O12      O        0.46550    0.05580    0.90160    1.000
    O13      O        0.92830    0.94890    0.39630    1.000
    O14      O        0.79690    0.91466    0.34590    1.000
    O15      O        0.88040    0.04692    0.71590    1.000
    O16      O        0.78750    0.99879    0.71980    1.000
    O17      O        0.71190    0.00392    0.28290    1.000
    O18      O        0.62090    0.95479    0.28260    1.000
    O19      O        0.70080    0.08621    0.65540    1.000
    O20      O        0.57100    0.05349    0.60410    1.000
    O21      O        0.42540    0.00036    0.21090    1.000
    O22      O        0.33080    0.95298    0.21460    1.000
    O23      O        0.04720    0.08670    0.84760    1.000
    O24      O        0.96660    0.05487    0.90250    1.000
    C41      C        0.27550    0.77073    0.17080    1.000
    C42      C        0.77480    0.77090    0.14840    1.000
    C43      C        0.59850    0.77249    0.18870    1.000
    C44      C        0.10210    0.77200    0.20480    1.000
    H17      H        0.22870    0.78540    0.12470    1.000
    H18      H        0.73450    0.78620    0.09860    1.000
    H19      H        0.59530    0.78780    0.14120    1.000
    H20      H        0.09840    0.78660    0.15650    1.000
    N5       N        0.77480    0.72910    0.14840    1.000
    N6       N        0.59850    0.72751    0.18870    1.000
    N7       N        0.27550    0.72927    0.17080    1.000
    N8       N        0.10210    0.72800    0.20480    1.000
    C45      C        0.15830    0.34360    0.76750    1.000
    C46      C        0.10390    0.27340    0.70620    1.000
    H21      H        0.06210    0.28900    0.65780    1.000
    C47      C        0.16440    0.29400    0.77630    1.000
    C48      C        0.39340    0.34416    0.73570    1.000
    C49      C        0.39660    0.29610    0.73720    1.000
    C50      C        0.37980    0.27204    0.65840    1.000
    H22      H        0.36910    0.28730    0.60810    1.000
    C51      C        0.66020    0.34576    0.76420    1.000
    C52      C        0.59260    0.27420    0.69500    1.000
    H23      H        0.54760    0.28900    0.64750    1.000
    C53      C        0.65320    0.29662    0.75920    1.000
    C54      C        0.89570    0.34481    0.73290    1.000
    C55      C        0.89310    0.29520    0.73040    1.000
    C56      C        0.88310    0.27170    0.65230    1.000
    H24      H        0.87690    0.28720    0.60380    1.000
    C57      C        0.15230    0.49110    0.80950    1.000
    C58      C        0.22850    0.51525    0.88050    1.000
    C59      C        0.21930    0.55059    0.92530    1.000
    H25      H        0.16360    0.56270    0.90660    1.000
    C60      C        0.29200    0.56770    0.99690    1.000
    H26      H        0.28630    0.58990    0.03040    1.000
    C61      C        0.37570    0.55060    0.01810    1.000
    C62      C        0.37719    0.51860    0.96100    1.000
    H27      H        0.43190    0.51130    0.96680    1.000
    C63      C        0.45960    0.56600    0.09570    1.000
    C64      C        0.13560    0.43760    0.59780    1.000
    C65      C        0.14640    0.45329    0.52220    1.000
    C66      C        0.20570    0.43460    0.49970    1.000
    H28      H        0.24180    0.41130    0.53170    1.000
    C67      C        0.20940    0.45210    0.42650    1.000
    H29      H        0.24750    0.43980    0.40930    1.000
    C68      C        0.15630    0.48760    0.38040    1.000
    C69      C        0.08790    0.48715    0.46470    1.000
    H30      H        0.04280    0.49730    0.47420    1.000
    C70      C        0.16380    0.50920    0.31030    1.000
    C71      C        0.33830    0.49030    0.68920    1.000
    C72      C        0.34490    0.51580    0.61850    1.000
    C73      C        0.29640    0.55080    0.57850    1.000
    H31      H        0.26160    0.56440    0.59840    1.000
    C74      C        0.29970    0.56660    0.50360    1.000
    H32      H        0.26140    0.58900    0.47030    1.000
    C75      C        0.35740    0.54990    0.47940    1.000
    C76      C        0.41040    0.51393    0.53180    1.000
    H33      H        0.45220    0.50250    0.51880    1.000
    C77      C        0.36090    0.56597    0.40290    1.000
    C78      C        0.65160    0.48716    0.81170    1.000
    C79      C        0.72960    0.51140    0.87770    1.000
    C80      C        0.72070    0.55042    0.92450    1.000
    H34      H        0.66650    0.56410    0.90630    1.000
    C81      C        0.79610    0.56462    0.99500    1.000
    H35      H        0.79140    0.58760    0.02760    1.000
    C82      C        0.87820    0.54800    0.02200    1.000
    C83      C        0.87820    0.51342    0.96730    1.000
    H36      H        0.93250    0.50390    0.97480    1.000
    C84      C        0.96120    0.56310    0.09340    1.000
    N9       N        0.30490    0.49767    0.89880    1.000
    N10      N        0.09520    0.50368    0.40210    1.000
    N11      N        0.40420    0.49532    0.59900    1.000
    N12      N        0.80500    0.49393    0.90590    1.000
    Nd5      Nd       0.00567    0.42855    0.69564    1.000
    Nd6      Nd       0.30980    0.42928    0.80598    1.000
    Nd7      Nd       0.50378    0.42810    0.69478    1.000
    Nd8      Nd       0.81062    0.42687    0.80641    1.000
    O25      O        0.09350    0.35998    0.69750    1.000
    O26      O        0.21610    0.36543    0.82970    1.000
    O27      O        0.36790    0.36363    0.78430    1.000
    O28      O        0.40830    0.36374    0.68140    1.000
    O29      O        0.58840    0.36314    0.71570    1.000
    O30      O        0.73140    0.36092    0.81540    1.000
    O31      O        0.87500    0.36143    0.78340    1.000
    O32      O        0.90720    0.36592    0.67760    1.000
    O33      O        0.07060    0.50261    0.78330    1.000
    O34      O        0.16690    0.45479    0.78440    1.000
    O35      O        0.45880    0.58757    0.15520    1.000
    O36      O        0.53450    0.55580    0.09840    1.000
    O37      O        0.07170    0.44890    0.60370    1.000
    O38      O        0.20310    0.41466    0.65410    1.000
    O39      O        0.11960    0.54692    0.28410    1.000
    O40      O        0.21250    0.49879    0.28020    1.000
    O41      O        0.28810    0.50392    0.71710    1.000
    O42      O        0.37910    0.45479    0.71740    1.000
    O43      O        0.29920    0.58621    0.34460    1.000
    O44      O        0.42900    0.55349    0.39590    1.000
    O45      O        0.57460    0.50036    0.78910    1.000
    O46      O        0.66920    0.45298    0.78540    1.000
    O47      O        0.95280    0.58670    0.15240    1.000
    O48      O        0.03340    0.55487    0.09750    1.000
    C85      C        0.72450    0.27073    0.82920    1.000
    C86      C        0.22520    0.27090    0.85160    1.000
    C87      C        0.40150    0.27249    0.81130    1.000
    C88      C        0.89790    0.27200    0.79520    1.000
    H37      H        0.77130    0.28540    0.87530    1.000
    H38      H        0.26550    0.28620    0.90140    1.000
    H39      H        0.40470    0.28780    0.85880    1.000
    H40      H        0.90160    0.28660    0.84350    1.000
    N13      N        0.22520    0.22910    0.85160    1.000
    N14      N        0.40150    0.22751    0.81130    1.000
    N15      N        0.72450    0.22927    0.82920    1.000
    N16      N        0.89790    0.22800    0.79520    1.000
    C89      C        0.15830    0.15640    0.76750    1.000
    C90      C        0.10390    0.22660    0.70620    1.000
    H41      H        0.06210    0.21100    0.65780    1.000
    C91      C        0.16440    0.20600    0.77630    1.000
    C92      C        0.39340    0.15584    0.73570    1.000
    C93      C        0.39660    0.20390    0.73720    1.000
    C94      C        0.37980    0.22796    0.65840    1.000
    H42      H        0.36910    0.21270    0.60810    1.000
    C95      C        0.66020    0.15424    0.76420    1.000
    C96      C        0.59260    0.22580    0.69500    1.000
    H43      H        0.54760    0.21100    0.64750    1.000
    C97      C        0.65320    0.20338    0.75920    1.000
    C98      C        0.89570    0.15519    0.73290    1.000
    C99      C        0.89310    0.20480    0.73040    1.000
    C100     C        0.88310    0.22830    0.65230    1.000
    H44      H        0.87690    0.21280    0.60380    1.000
    C101     C        0.15230    0.00890    0.80950    1.000
    C102     C        0.22850    0.98475    0.88050    1.000
    C103     C        0.21930    0.94941    0.92530    1.000
    H45      H        0.16360    0.93730    0.90660    1.000
    C104     C        0.29200    0.93230    0.99690    1.000
    H46      H        0.28630    0.91010    0.03040    1.000
    C105     C        0.37570    0.94940    0.01810    1.000
    C106     C        0.37719    0.98140    0.96100    1.000
    H47      H        0.43190    0.98870    0.96680    1.000
    C107     C        0.45960    0.93400    0.09570    1.000
    C108     C        0.13560    0.06240    0.59780    1.000
    C109     C        0.14640    0.04671    0.52220    1.000
    C110     C        0.20570    0.06540    0.49970    1.000
    H48      H        0.24180    0.08870    0.53170    1.000
    C111     C        0.20940    0.04790    0.42650    1.000
    H49      H        0.24750    0.06020    0.40930    1.000
    C112     C        0.15630    0.01240    0.38040    1.000
    C113     C        0.08790    0.01285    0.46470    1.000
    H50      H        0.04280    0.00270    0.47420    1.000
    C114     C        0.16380    0.99080    0.31030    1.000
    C115     C        0.33830    0.00970    0.68920    1.000
    C116     C        0.34490    0.98420    0.61850    1.000
    C117     C        0.29640    0.94920    0.57850    1.000
    H51      H        0.26160    0.93560    0.59840    1.000
    C118     C        0.29970    0.93340    0.50360    1.000
    H52      H        0.26140    0.91100    0.47030    1.000
    C119     C        0.35740    0.95010    0.47940    1.000
    C120     C        0.41040    0.98607    0.53180    1.000
    H53      H        0.45220    0.99750    0.51880    1.000
    C121     C        0.36090    0.93403    0.40290    1.000
    C122     C        0.65160    0.01284    0.81170    1.000
    C123     C        0.72960    0.98860    0.87770    1.000
    C124     C        0.72070    0.94958    0.92450    1.000
    H54      H        0.66650    0.93590    0.90630    1.000
    C125     C        0.79610    0.93538    0.99500    1.000
    H55      H        0.79140    0.91240    0.02760    1.000
    C126     C        0.87820    0.95200    0.02200    1.000
    C127     C        0.87820    0.98658    0.96730    1.000
    H56      H        0.93250    0.99610    0.97480    1.000
    C128     C        0.96120    0.93690    0.09340    1.000
    N17      N        0.30490    0.00233    0.89880    1.000
    N18      N        0.09520    0.99632    0.40210    1.000
    N19      N        0.40420    0.00468    0.59900    1.000
    N20      N        0.80500    0.00607    0.90590    1.000
    Nd9      Nd       0.00567    0.07145    0.69564    1.000
    Nd10     Nd       0.30980    0.07072    0.80598    1.000
    Nd11     Nd       0.50378    0.07190    0.69478    1.000
    Nd12     Nd       0.81062    0.07313    0.80641    1.000
    O49      O        0.09350    0.14002    0.69750    1.000
    O50      O        0.21610    0.13457    0.82970    1.000
    O51      O        0.36790    0.13637    0.78430    1.000
    O52      O        0.40830    0.13626    0.68140    1.000
    O53      O        0.58840    0.13686    0.71570    1.000
    O54      O        0.73140    0.13908    0.81540    1.000
    O55      O        0.87500    0.13857    0.78340    1.000
    O56      O        0.90720    0.13408    0.67760    1.000
    O57      O        0.07060    0.99739    0.78330    1.000
    O58      O        0.16690    0.04521    0.78440    1.000
    O59      O        0.45880    0.91243    0.15520    1.000
    O60      O        0.53450    0.94420    0.09840    1.000
    O61      O        0.07170    0.05110    0.60370    1.000
    O62      O        0.20310    0.08534    0.65410    1.000
    O63      O        0.11960    0.95308    0.28410    1.000
    O64      O        0.21250    0.00121    0.28020    1.000
    O65      O        0.28810    0.99608    0.71710    1.000
    O66      O        0.37910    0.04521    0.71740    1.000
    O67      O        0.29920    0.91379    0.34460    1.000
    O68      O        0.42900    0.94651    0.39590    1.000
    O69      O        0.57460    0.99964    0.78910    1.000
    O70      O        0.66920    0.04702    0.78540    1.000
    O71      O        0.95280    0.91330    0.15240    1.000
    O72      O        0.03340    0.94513    0.09750    1.000
    H57      H        0.77130    0.21460    0.87530    1.000
    H58      H        0.26550    0.21380    0.90140    1.000
    H59      H        0.40470    0.21220    0.85880    1.000
    H60      H        0.90160    0.21340    0.84350    1.000
    C129     C        0.84170    0.65640    0.23250    1.000
    C130     C        0.89610    0.72660    0.29380    1.000
    H61      H        0.93790    0.71100    0.34220    1.000
    C131     C        0.83560    0.70600    0.22370    1.000
    C132     C        0.60660    0.65584    0.26430    1.000
    C133     C        0.60340    0.70390    0.26280    1.000
    C134     C        0.62020    0.72796    0.34160    1.000
    H62      H        0.63090    0.71270    0.39190    1.000
    C135     C        0.33980    0.65424    0.23580    1.000
    C136     C        0.40740    0.72580    0.30500    1.000
    H63      H        0.45240    0.71100    0.35250    1.000
    C137     C        0.34680    0.70338    0.24080    1.000
    C138     C        0.10430    0.65519    0.26710    1.000
    C139     C        0.10690    0.70480    0.26960    1.000
    C140     C        0.11690    0.72830    0.34770    1.000
    H64      H        0.12310    0.71280    0.39620    1.000
    C141     C        0.84770    0.50890    0.19050    1.000
    C142     C        0.77150    0.48475    0.11950    1.000
    C143     C        0.78070    0.44941    0.07470    1.000
    H65      H        0.83640    0.43730    0.09340    1.000
    C144     C        0.70800    0.43230    0.00310    1.000
    H66      H        0.71370    0.41010    0.96960    1.000
    C145     C        0.62430    0.44940    0.98190    1.000
    C146     C        0.62281    0.48140    0.03900    1.000
    H67      H        0.56810    0.48870    0.03320    1.000
    C147     C        0.54040    0.43400    0.90430    1.000
    C148     C        0.86440    0.56240    0.40220    1.000
    C149     C        0.85360    0.54671    0.47780    1.000
    C150     C        0.79430    0.56540    0.50030    1.000
    H68      H        0.75820    0.58870    0.46830    1.000
    C151     C        0.79060    0.54790    0.57350    1.000
    H69      H        0.75250    0.56020    0.59070    1.000
    C152     C        0.84370    0.51240    0.61960    1.000
    C153     C        0.91210    0.51285    0.53530    1.000
    H70      H        0.95720    0.50270    0.52580    1.000
    C154     C        0.83620    0.49080    0.68970    1.000
    C155     C        0.66170    0.50970    0.31080    1.000
    C156     C        0.65510    0.48420    0.38150    1.000
    C157     C        0.70360    0.44920    0.42150    1.000
    H71      H        0.73840    0.43560    0.40160    1.000
    C158     C        0.70030    0.43340    0.49640    1.000
    H72      H        0.73860    0.41100    0.52970    1.000
    C159     C        0.64260    0.45010    0.52060    1.000
    C160     C        0.58960    0.48607    0.46820    1.000
    H73      H        0.54780    0.49750    0.48120    1.000
    C161     C        0.63910    0.43403    0.59710    1.000
    C162     C        0.34840    0.51284    0.18830    1.000
    C163     C        0.27040    0.48860    0.12230    1.000
    C164     C        0.27930    0.44958    0.07550    1.000
    H74      H        0.33350    0.43590    0.09370    1.000
    C165     C        0.20390    0.43538    0.00500    1.000
    H75      H        0.20860    0.41240    0.97240    1.000
    C166     C        0.12180    0.45200    0.97800    1.000
    C167     C        0.12180    0.48658    0.03270    1.000
    H76      H        0.06750    0.49610    0.02520    1.000
    C168     C        0.03880    0.43690    0.90660    1.000
    N21      N        0.69510    0.50233    0.10120    1.000
    N22      N        0.90480    0.49632    0.59790    1.000
    N23      N        0.59580    0.50468    0.40100    1.000
    N24      N        0.19500    0.50607    0.09410    1.000
    Nd13     Nd       0.99433    0.57145    0.30436    1.000
    Nd14     Nd       0.69020    0.57072    0.19402    1.000
    Nd15     Nd       0.49622    0.57190    0.30522    1.000
    Nd16     Nd       0.18938    0.57313    0.19359    1.000
    O73      O        0.90650    0.64002    0.30250    1.000
    O74      O        0.78390    0.63457    0.17030    1.000
    O75      O        0.63210    0.63637    0.21570    1.000
    O76      O        0.59170    0.63626    0.31860    1.000
    O77      O        0.41160    0.63686    0.28430    1.000
    O78      O        0.26860    0.63908    0.18460    1.000
    O79      O        0.12500    0.63857    0.21660    1.000
    O80      O        0.09280    0.63408    0.32240    1.000
    O81      O        0.92940    0.49739    0.21670    1.000
    O82      O        0.83310    0.54521    0.21560    1.000
    O83      O        0.54120    0.41243    0.84480    1.000
    O84      O        0.46550    0.44420    0.90160    1.000
    O85      O        0.92830    0.55110    0.39630    1.000
    O86      O        0.79690    0.58534    0.34590    1.000
    O87      O        0.88040    0.45308    0.71590    1.000
    O88      O        0.78750    0.50121    0.71980    1.000
    O89      O        0.71190    0.49608    0.28290    1.000
    O90      O        0.62090    0.54521    0.28260    1.000
    O91      O        0.70080    0.41379    0.65540    1.000
    O92      O        0.57100    0.44651    0.60410    1.000
    O93      O        0.42540    0.49964    0.21090    1.000
    O94      O        0.33080    0.54702    0.21460    1.000
    O95      O        0.04720    0.41330    0.84760    1.000
    O96      O        0.96660    0.44513    0.90250    1.000
    H77      H        0.22870    0.71460    0.12470    1.000
    H78      H        0.73450    0.71380    0.09860    1.000
    H79      H        0.59530    0.71220    0.14120    1.000
    H80      H        0.09840    0.71340    0.15650    1.000
