# CIF file generated by openbabel 3.1.0, see https://openbabel.org
data_I
_chemical_name_common 'image0'
_cell_length_a 6.4355
_cell_length_b 13.462
_cell_length_c 13.753
_cell_angle_alpha 61.532
_cell_angle_beta 82.433
_cell_angle_gamma 81.244
_space_group_name_H-M_alt 'P 1'
_space_group_name_Hall 'P 1'
loop_
    _symmetry_equiv_pos_as_xyz
    x,y,z
loop_
    _atom_site_label
    _atom_site_type_symbol
    _atom_site_fract_x
    _atom_site_fract_y
    _atom_site_fract_z
    _atom_site_occupancy
    Gd1      Gd       0.57850    0.45097    0.82929    1.000
    O1       O        0.63640    0.60560    0.84690    1.000
    O2       O        0.44710    0.63600    0.97889    1.000
    O3       O        0.79270    0.54047    0.10536    1.000
    O4       O        0.07280    0.60170    0.12754    1.000
    O5       O        0.58760    0.38050    0.32120    1.000
    O6       O        0.92730    0.35130    0.27550    1.000
    H1       H        0.89120    0.38580    0.21320    1.000
    O7       O        0.39070    0.37840    0.73430    1.000
    O8       O        0.58240    0.25310    0.86950    1.000
    C1       C        0.60120    0.65080    0.90950    1.000
    C2       C        0.91990    0.61570    0.07350    1.000
    C3       C        0.88620    0.72350    0.96850    1.000
    C4       C        0.74800    0.73690    0.89140    1.000
    C5       C        0.74120    0.83590    0.79100    1.000
    H2       H        0.65420    0.84320    0.73860    1.000
    C6       C        0.85940    0.92490    0.76560    1.000
    C7       C        0.98890    0.91530    0.84600    1.000
    C8       C        0.00210    0.81280    0.94430    1.000
    H3       H        0.09250    0.80390    0.99600    1.000
    C9       C        0.84050    0.02720    0.65210    1.000
    C10      C        0.01340    0.06900    0.58250    1.000
    H4       H        0.14730    0.03350    0.60400    1.000
    C11      C        0.99030    0.16460    0.47940    1.000
    H5       H        0.10810    0.19240    0.43190    1.000
    C12      C        0.78950    0.21840    0.44810    1.000
    C13      C        0.61410    0.17440    0.51850    1.000
    H6       H        0.47980    0.20930    0.49740    1.000
    C14      C        0.63890    0.07920    0.61950    1.000
    H7       H        0.52110    0.04940    0.66610    1.000
    C15      C        0.75980    0.32360    0.34140    1.000
    C16      C        0.10740    0.00990    0.83310    1.000
    C17      C        0.01970    0.12210    0.78270    1.000
    H8       H        0.88620    0.13960    0.75620    1.000
    C18      C        0.13000    0.20820    0.77150    1.000
    H9       H        0.07160    0.28340    0.73580    1.000
    C19      C        0.32660    0.18330    0.81320    1.000
    C20      C        0.41300    0.06990    0.86670    1.000
    H10      H        0.54370    0.05200    0.89610    1.000
    C21      C        0.30400    0.98400    0.87580    1.000
    H11      H        0.36280    0.90890    0.91070    1.000
    C22      C        0.44240    0.27590    0.80440    1.000
    Gd2      Gd       0.42150    0.54903    0.17071    1.000
    O9       O        0.36360    0.39440    0.15310    1.000
    O10      O        0.55290    0.36400    0.02111    1.000
    O11      O        0.20730    0.45953    0.89464    1.000
    O12      O        0.92720    0.39830    0.87246    1.000
    O13      O        0.41240    0.61950    0.67880    1.000
    O14      O        0.07270    0.64870    0.72450    1.000
    H12      H        0.10880    0.61420    0.78680    1.000
    O15      O        0.60930    0.62160    0.26570    1.000
    O16      O        0.41760    0.74690    0.13050    1.000
    C23      C        0.39880    0.34920    0.09050    1.000
    C24      C        0.08010    0.38430    0.92650    1.000
    C25      C        0.11380    0.27650    0.03150    1.000
    C26      C        0.25200    0.26310    0.10860    1.000
    C27      C        0.25880    0.16410    0.20900    1.000
    H13      H        0.34580    0.15680    0.26140    1.000
    C28      C        0.14060    0.07510    0.23440    1.000
    C29      C        0.01110    0.08470    0.15400    1.000
    C30      C        0.99790    0.18720    0.05570    1.000
    H14      H        0.90750    0.19610    0.00400    1.000
    C31      C        0.15950    0.97280    0.34790    1.000
    C32      C        0.98660    0.93100    0.41750    1.000
    H15      H        0.85270    0.96650    0.39600    1.000
    C33      C        0.00970    0.83540    0.52060    1.000
    H16      H        0.89190    0.80760    0.56810    1.000
    C34      C        0.21050    0.78160    0.55190    1.000
    C35      C        0.38590    0.82560    0.48150    1.000
    H17      H        0.52020    0.79070    0.50260    1.000
    C36      C        0.36110    0.92080    0.38050    1.000
    H18      H        0.47890    0.95060    0.33390    1.000
    C37      C        0.24020    0.67640    0.65860    1.000
    C38      C        0.89260    0.99010    0.16690    1.000
    C39      C        0.98030    0.87790    0.21730    1.000
    H19      H        0.11380    0.86040    0.24380    1.000
    C40      C        0.87000    0.79180    0.22850    1.000
    H20      H        0.92840    0.71660    0.26420    1.000
    C41      C        0.67340    0.81670    0.18680    1.000
    C42      C        0.58700    0.93010    0.13330    1.000
    H21      H        0.45630    0.94800    0.10390    1.000
    C43      C        0.69600    0.01600    0.12420    1.000
    H22      H        0.63720    0.09110    0.08930    1.000
    C44      C        0.55760    0.72410    0.19560    1.000
