# CIF file generated by openbabel 3.1.0, see https://openbabel.org
data_I
_chemical_name_common 'IJASES_clean'
_cell_length_a 8.6514
_cell_length_b 10.1531
_cell_length_c 11.1703
_cell_angle_alpha 65.437
_cell_angle_beta 71.666
_cell_angle_gamma 78.421
_space_group_name_H-M_alt 'P 1'
_space_group_name_Hall 'P 1'
loop_
    _symmetry_equiv_pos_as_xyz
    x,y,z
loop_
    _atom_site_label
    _atom_site_type_symbol
    _atom_site_fract_x
    _atom_site_fract_y
    _atom_site_fract_z
    _atom_site_occupancy
    Tm1      Tm       0.13213    0.44028    0.65276    1.000
    Tm2      Tm       0.86787    0.55972    0.34724    1.000
    H1       H        0.63470    0.11250    0.77080    1.000
    H2       H        0.22800    0.07210    0.08180    1.000
    H3       H        0.54430    0.35310    0.87560    1.000
    H4       H        0.71530    0.61880    0.98520    1.000
    H5       H        0.92500    0.78040    0.68190    1.000
    H6       H        0.01990    0.02730    0.27770    1.000
    H7       H        0.36530    0.88750    0.22920    1.000
    H8       H        0.77200    0.92790    0.91820    1.000
    H9       H        0.45570    0.64690    0.12440    1.000
    H10      H        0.28470    0.38120    0.01480    1.000
    H11      H        0.07500    0.21960    0.31810    1.000
    H12      H        0.98010    0.97270    0.72230    1.000
    C1       C        0.32660    0.23160    0.82040    1.000
    C2       C        0.41830    0.11200    0.91060    1.000
    C3       C        0.57930    0.06730    0.86400    1.000
    C4       C        0.33900    0.04300    0.04820    1.000
    C5       C        0.82030    0.46160    0.83120    1.000
    C6       C        0.65400    0.48280    0.91740    1.000
    C7       C        0.52610    0.41280    0.92630    1.000
    C8       C        0.62800    0.57060    0.99130    1.000
    C9       C        0.93020    0.76680    0.44730    1.000
    C10      C        0.96670    0.88560    0.47590    1.000
    C11      C        0.95520    0.86920    0.60800    1.000
    C12      C        0.01170    0.01620    0.36810    1.000
    C13      C        0.67340    0.76840    0.17960    1.000
    C14      C        0.58170    0.88800    0.08940    1.000
    C15      C        0.42070    0.93270    0.13600    1.000
    C16      C        0.66100    0.95700    0.95180    1.000
    C17      C        0.17970    0.53840    0.16880    1.000
    C18      C        0.34600    0.51720    0.08260    1.000
    C19      C        0.47390    0.58720    0.07370    1.000
    C20      C        0.37200    0.42940    0.00870    1.000
    C21      C        0.06980    0.23320    0.55270    1.000
    C22      C        0.03330    0.11440    0.52410    1.000
    C23      C        0.04480    0.13080    0.39200    1.000
    C24      C        0.98830    0.98380    0.63190    1.000
    O1       O        0.39830    0.29890    0.69600    1.000
    O2       O        0.17880    0.26550    0.86880    1.000
    O3       O        0.84320    0.38130    0.76360    1.000
    O4       O        0.93530    0.52390    0.82500    1.000
    O5       O        0.96210    0.63430    0.51870    1.000
    O6       O        0.86840    0.79950    0.34980    1.000
    O7       O        0.60170    0.70110    0.30400    1.000
    O8       O        0.82120    0.73450    0.13120    1.000
    O9       O        0.15680    0.61870    0.23640    1.000
    O10      O        0.06470    0.47610    0.17500    1.000
    O11      O        0.03790    0.36570    0.48130    1.000
    O12      O        0.13160    0.20050    0.65020    1.000
