# CIF file generated by openbabel 3.1.0, see https://openbabel.org
data_I
_chemical_name_common 'image0'
_cell_length_a 14.3635
_cell_length_b 12.0029
_cell_length_c 16.9974
_cell_angle_alpha 90
_cell_angle_beta 113.381
_cell_angle_gamma 90
_space_group_name_H-M_alt 'P 1'
_space_group_name_Hall 'P 1'
loop_
    _symmetry_equiv_pos_as_xyz
    x,y,z
loop_
    _atom_site_label
    _atom_site_type_symbol
    _atom_site_fract_x
    _atom_site_fract_y
    _atom_site_fract_z
    _atom_site_occupancy
    Zn1      Zn       0.89368    0.93755    0.89091    1.000
    Zn2      Zn       0.31876    0.07586    0.93504    1.000
    P1       P        0.11709    0.00649    0.93073    1.000
    P2       P        0.31400    0.92878    0.78793    1.000
    N1       N        0.27920    0.89130    0.93200    1.000
    N2       N        0.93700    0.77840    0.93260    1.000
    N3       N        0.38390    0.23210    0.95760    1.000
    C1       C        0.39040    0.93340    0.08350    1.000
    C2       C        0.32560    0.83880    0.87780    1.000
    H1       H        0.39670    0.82410    0.91200    1.000
    H2       H        0.29240    0.76820    0.85630    1.000
    C3       C        0.32180    0.84920    0.02060    1.000
    H3       H        0.26670    0.83000    0.03750    1.000
    H4       H        0.36010    0.78180    0.02300    1.000
    C4       C        0.16550    0.88830    0.89280    1.000
    H5       H        0.14130    0.89090    0.83080    1.000
    H6       H        0.14170    0.81970    0.90860    1.000
    C5       C        0.91570    0.69580    0.87230    1.000
    C6       C        0.94000    0.58300    0.89560    1.000
    C7       C        0.12910    0.30560    0.10560    1.000
    C8       C        0.10700    0.41490    0.07880    1.000
    C9       C        0.98660    0.55910    0.98580    1.000
    C10      C        0.03340    0.64700    0.03650    1.000
    H7       H        0.08290    0.63470    0.09110    1.000
    C11      C        0.00830    0.75260    0.00760    1.000
    H8       H        0.04370    0.81070    0.04310    1.000
    C12      C        0.40030    0.28750    0.02960    1.000
    H9       H        0.38070    0.25370    0.06990    1.000
    C13      C        0.44410    0.39130    0.04860    1.000
    H10      H        0.45230    0.42600    0.09980    1.000
    C14      C        0.47590    0.44390    0.99150    1.000
    C15      C        0.46420    0.38390    0.91900    1.000
    H11      H        0.48760    0.41310    0.87950    1.000
    C16      C        0.41830    0.28130    0.90500    1.000
    H12      H        0.41080    0.24380    0.85490    1.000
    O1       O        0.40510    0.02760    0.05800    1.000
    O2       O        0.42850    0.90260    0.16030    1.000
    O3       O        0.00460    0.01570    0.87530    1.000
    O4       O        0.17570    0.10660    0.91790    1.000
    O5       O        0.13900    0.98510    0.02440    1.000
    O6       O        0.20840    0.91280    0.72010    1.000
    O7       O        0.33260    0.04690    0.82470    1.000
    O8       O        0.39550    0.89050    0.75740    1.000
    Zn3      Zn       0.10632    0.93755    0.60909    1.000
    Zn4      Zn       0.68124    0.07586    0.56496    1.000
    P3       P        0.88291    0.00649    0.56927    1.000
    P4       P        0.68600    0.92878    0.71207    1.000
    N4       N        0.72080    0.89130    0.56800    1.000
    N5       N        0.06300    0.77840    0.56740    1.000
    N6       N        0.61610    0.23210    0.54240    1.000
    C17      C        0.60960    0.93340    0.41650    1.000
    C18      C        0.67440    0.83880    0.62220    1.000
    H13      H        0.60330    0.82410    0.58800    1.000
    H14      H        0.70760    0.76820    0.64370    1.000
    C19      C        0.67820    0.84920    0.47940    1.000
    H15      H        0.73330    0.83000    0.46250    1.000
    H16      H        0.63990    0.78180    0.47700    1.000
    C20      C        0.83450    0.88830    0.60720    1.000
    H17      H        0.85870    0.89090    0.66920    1.000
    H18      H        0.85830    0.81970    0.59140    1.000
    C21      C        0.08430    0.69580    0.62770    1.000
    C22      C        0.06000    0.58300    0.60440    1.000
    C23      C        0.87090    0.30560    0.39440    1.000
    C24      C        0.89300    0.41490    0.42120    1.000
    C25      C        0.01340    0.55910    0.51420    1.000
    C26      C        0.96660    0.64700    0.46350    1.000
    H19      H        0.91710    0.63470    0.40890    1.000
    C27      C        0.99170    0.75260    0.49240    1.000
    H20      H        0.95630    0.81070    0.45690    1.000
    C28      C        0.59970    0.28750    0.47040    1.000
    H21      H        0.61930    0.25370    0.43010    1.000
    C29      C        0.55590    0.39130    0.45140    1.000
    H22      H        0.54770    0.42600    0.40020    1.000
    C30      C        0.52410    0.44390    0.50850    1.000
    C31      C        0.53580    0.38390    0.58100    1.000
    H23      H        0.51240    0.41310    0.62050    1.000
    C32      C        0.58170    0.28130    0.59500    1.000
    H24      H        0.58920    0.24380    0.64510    1.000
    O9       O        0.59490    0.02760    0.44200    1.000
    O10      O        0.57150    0.90260    0.33970    1.000
    O11      O        0.99540    0.01570    0.62470    1.000
    O12      O        0.82430    0.10660    0.58210    1.000
    O13      O        0.86100    0.98510    0.47560    1.000
    O14      O        0.79160    0.91280    0.77990    1.000
    O15      O        0.66740    0.04690    0.67530    1.000
    O16      O        0.60450    0.89050    0.74260    1.000
    Zn5      Zn       0.10632    0.06245    0.10909    1.000
    Zn6      Zn       0.68124    0.92414    0.06496    1.000
    P5       P        0.88291    0.99351    0.06927    1.000
    P6       P        0.68600    0.07122    0.21207    1.000
    N7       N        0.72080    0.10870    0.06800    1.000
    N8       N        0.06300    0.22160    0.06740    1.000
    N9       N        0.61610    0.76790    0.04240    1.000
    C33      C        0.60960    0.06660    0.91650    1.000
    C34      C        0.67440    0.16120    0.12220    1.000
    H25      H        0.60330    0.17590    0.08800    1.000
    H26      H        0.70760    0.23180    0.14370    1.000
    C35      C        0.67820    0.15080    0.97940    1.000
    H27      H        0.73330    0.17000    0.96250    1.000
    H28      H        0.63990    0.21820    0.97700    1.000
    C36      C        0.83450    0.11170    0.10720    1.000
    H29      H        0.85870    0.10910    0.16920    1.000
    H30      H        0.85830    0.18030    0.09140    1.000
    C37      C        0.08430    0.30420    0.12770    1.000
    C38      C        0.06000    0.41700    0.10440    1.000
    C39      C        0.87090    0.69440    0.89440    1.000
    C40      C        0.89300    0.58510    0.92120    1.000
    C41      C        0.01340    0.44090    0.01420    1.000
    C42      C        0.96660    0.35300    0.96350    1.000
    H31      H        0.91710    0.36530    0.90890    1.000
    C43      C        0.99170    0.24740    0.99240    1.000
    H32      H        0.95630    0.18930    0.95690    1.000
    C44      C        0.59970    0.71250    0.97040    1.000
    H33      H        0.61930    0.74630    0.93010    1.000
    C45      C        0.55590    0.60870    0.95140    1.000
    H34      H        0.54770    0.57400    0.90020    1.000
    C46      C        0.52410    0.55610    0.00850    1.000
    C47      C        0.53580    0.61610    0.08100    1.000
    H35      H        0.51240    0.58690    0.12050    1.000
    C48      C        0.58170    0.71870    0.09500    1.000
    H36      H        0.58920    0.75620    0.14510    1.000
    O17      O        0.59490    0.97240    0.94200    1.000
    O18      O        0.57150    0.09740    0.83970    1.000
    O19      O        0.99540    0.98430    0.12470    1.000
    O20      O        0.82430    0.89340    0.08210    1.000
    O21      O        0.86100    0.01490    0.97560    1.000
    O22      O        0.79160    0.08720    0.27990    1.000
    O23      O        0.66740    0.95310    0.17530    1.000
    O24      O        0.60450    0.10950    0.24260    1.000
    Zn7      Zn       0.89368    0.06245    0.39091    1.000
    Zn8      Zn       0.31876    0.92414    0.43504    1.000
    P7       P        0.11709    0.99351    0.43073    1.000
    P8       P        0.31400    0.07122    0.28793    1.000
    N10      N        0.27920    0.10870    0.43200    1.000
    N11      N        0.93700    0.22160    0.43260    1.000
    N12      N        0.38390    0.76790    0.45760    1.000
    C49      C        0.39040    0.06660    0.58350    1.000
    C50      C        0.32560    0.16120    0.37780    1.000
    H37      H        0.39670    0.17590    0.41200    1.000
    H38      H        0.29240    0.23180    0.35630    1.000
    C51      C        0.32180    0.15080    0.52060    1.000
    H39      H        0.26670    0.17000    0.53750    1.000
    H40      H        0.36010    0.21820    0.52300    1.000
    C52      C        0.16550    0.11170    0.39280    1.000
    H41      H        0.14130    0.10910    0.33080    1.000
    H42      H        0.14170    0.18030    0.40860    1.000
    C53      C        0.91570    0.30420    0.37230    1.000
    C54      C        0.94000    0.41700    0.39560    1.000
    C55      C        0.12910    0.69440    0.60560    1.000
    C56      C        0.10700    0.58510    0.57880    1.000
    C57      C        0.98660    0.44090    0.48580    1.000
    C58      C        0.03340    0.35300    0.53650    1.000
    H43      H        0.08290    0.36530    0.59110    1.000
    C59      C        0.00830    0.24740    0.50760    1.000
    H44      H        0.04370    0.18930    0.54310    1.000
    C60      C        0.40030    0.71250    0.52960    1.000
    H45      H        0.38070    0.74630    0.56990    1.000
    C61      C        0.44410    0.60870    0.54860    1.000
    H46      H        0.45230    0.57400    0.59980    1.000
    C62      C        0.47590    0.55610    0.49150    1.000
    C63      C        0.46420    0.61610    0.41900    1.000
    H47      H        0.48760    0.58690    0.37950    1.000
    C64      C        0.41830    0.71870    0.40500    1.000
    H48      H        0.41080    0.75620    0.35490    1.000
    O25      O        0.40510    0.97240    0.55800    1.000
    O26      O        0.42850    0.09740    0.66030    1.000
    O27      O        0.00460    0.98430    0.37530    1.000
    O28      O        0.17570    0.89340    0.41790    1.000
    O29      O        0.13900    0.01490    0.52440    1.000
    O30      O        0.20840    0.08720    0.22010    1.000
    O31      O        0.33260    0.95310    0.32470    1.000
    O32      O        0.39550    0.10950    0.25740    1.000
    Zn9      Zn       0.50000    0.01420    0.25000    1.000
    Zn10     Zn       0.50000    0.98580    0.75000    1.000
