# CIF file generated by openbabel 3.1.0, see https://openbabel.org
data_I
_chemical_name_common 'image0'
_cell_length_a 18.7824
_cell_length_b 19.6842
_cell_length_c 12.049
_cell_angle_alpha 90
_cell_angle_beta 90
_cell_angle_gamma 90
_space_group_name_H-M_alt 'P 1'
_space_group_name_Hall 'P 1'
loop_
    _symmetry_equiv_pos_as_xyz
    x,y,z
loop_
    _atom_site_label
    _atom_site_type_symbol
    _atom_site_fract_x
    _atom_site_fract_y
    _atom_site_fract_z
    _atom_site_occupancy
    Co1      Co       0.30798    0.83751    0.32270    1.000
    C1       C        0.21490    0.96150    0.38100    1.000
    H1       H        0.18840    0.94530    0.31940    1.000
    C2       C        0.18960    0.01820    0.43810    1.000
    H2       H        0.14650    0.03940    0.41560    1.000
    C3       C        0.22660    0.04290    0.52550    1.000
    C4       C        0.29050    0.00970    0.55570    1.000
    H3       H        0.31780    0.02500    0.61720    1.000
    C5       C        0.31220    0.95460    0.49420    1.000
    H4       H        0.35610    0.93340    0.51280    1.000
    C6       C        0.20250    0.10460    0.59010    1.000
    C7       C        0.99160    0.80720    0.42570    1.000
    H5       H        0.96740    0.84920    0.43520    1.000
    C8       C        0.06300    0.80920    0.40310    1.000
    H6       H        0.08710    0.85150    0.39900    1.000
    C9       C        0.30240    0.79580    0.82170    1.000
    H7       H        0.27500    0.82890    0.86010    1.000
    C10      C        0.30350    0.79670    0.70430    1.000
    H8       H        0.27800    0.83110    0.66580    1.000
    N1       N        0.27410    0.92930    0.40870    1.000
    H9       H        0.38370    0.75820    0.25850    1.000
    O1       O        0.16210    0.14530    0.54290    1.000
    O2       O        0.22750    0.11060    0.68620    1.000
    O3       O        0.20440    0.80410    0.33980    1.000
    O4       O        0.34130    0.80510    0.47710    1.000
    C11      C        0.12660    0.29790    0.32270    1.000
    C12      C        0.12460    0.30060    0.20770    1.000
    H10      H        0.10180    0.33190    0.36320    1.000
    H11      H        0.09980    0.33610    0.17090    1.000
    Co2      Co       0.19202    0.16249    0.82270    1.000
    C13      C        0.28510    0.03850    0.88100    1.000
    H12      H        0.31160    0.05470    0.81940    1.000
    C14      C        0.31040    0.98180    0.93810    1.000
    H13      H        0.35350    0.96060    0.91560    1.000
    C15      C        0.27340    0.95710    0.02550    1.000
    C16      C        0.20950    0.99030    0.05570    1.000
    H14      H        0.18220    0.97500    0.11720    1.000
    C17      C        0.18780    0.04540    0.99420    1.000
    H15      H        0.14390    0.06660    0.01280    1.000
    C18      C        0.29750    0.89540    0.09010    1.000
    C19      C        0.50840    0.19280    0.92570    1.000
    H16      H        0.53260    0.15080    0.93520    1.000
    C20      C        0.43700    0.19080    0.90310    1.000
    H17      H        0.41290    0.14850    0.89900    1.000
    C21      C        0.19760    0.20420    0.32170    1.000
    H18      H        0.22500    0.17110    0.36010    1.000
    C22      C        0.19650    0.20330    0.20430    1.000
    H19      H        0.22200    0.16890    0.16580    1.000
    N2       N        0.22590    0.07070    0.90870    1.000
    H20      H        0.11630    0.24180    0.75850    1.000
    O5       O        0.33790    0.85470    0.04290    1.000
    O6       O        0.27250    0.88940    0.18620    1.000
    O7       O        0.29560    0.19590    0.83980    1.000
    O8       O        0.15870    0.19490    0.97710    1.000
    C23      C        0.37340    0.70210    0.82270    1.000
    C24      C        0.37540    0.69940    0.70770    1.000
    H21      H        0.39820    0.66810    0.86320    1.000
    H22      H        0.40020    0.66390    0.67090    1.000
    Co3      Co       0.69202    0.33751    0.67730    1.000
    C25      C        0.78510    0.46150    0.61900    1.000
    H23      H        0.81160    0.44530    0.68060    1.000
    C26      C        0.81040    0.51820    0.56190    1.000
    H24      H        0.85350    0.53940    0.58440    1.000
    C27      C        0.77340    0.54290    0.47450    1.000
    C28      C        0.70950    0.50970    0.44430    1.000
    H25      H        0.68220    0.52500    0.38280    1.000
    C29      C        0.68780    0.45460    0.50580    1.000
    H26      H        0.64390    0.43340    0.48720    1.000
    C30      C        0.79750    0.60460    0.40990    1.000
    C31      C        0.00840    0.30720    0.57430    1.000
    H27      H        0.03260    0.34920    0.56480    1.000
    C32      C        0.93700    0.30920    0.59690    1.000
    H28      H        0.91290    0.35150    0.60100    1.000
    C33      C        0.69760    0.29580    0.17830    1.000
    H29      H        0.72500    0.32890    0.13990    1.000
    C34      C        0.69650    0.29670    0.29570    1.000
    H30      H        0.72200    0.33110    0.33420    1.000
    N3       N        0.72590    0.42930    0.59130    1.000
    H31      H        0.61630    0.25820    0.74150    1.000
    O9       O        0.83790    0.64530    0.45710    1.000
    O10      O        0.77250    0.61060    0.31380    1.000
    O11      O        0.79560    0.30410    0.66020    1.000
    O12      O        0.65870    0.30510    0.52290    1.000
    C35      C        0.87340    0.79790    0.67730    1.000
    C36      C        0.87540    0.80060    0.79230    1.000
    H32      H        0.89820    0.83190    0.63680    1.000
    H33      H        0.90020    0.83610    0.82910    1.000
    Co4      Co       0.80798    0.66249    0.17730    1.000
    C37      C        0.71490    0.53850    0.11900    1.000
    H34      H        0.68840    0.55470    0.18060    1.000
    C38      C        0.68960    0.48180    0.06190    1.000
    H35      H        0.64650    0.46060    0.08440    1.000
    C39      C        0.72660    0.45710    0.97450    1.000
    C40      C        0.79050    0.49030    0.94430    1.000
    H36      H        0.81780    0.47500    0.88280    1.000
    C41      C        0.81220    0.54540    0.00580    1.000
    H37      H        0.85610    0.56660    0.98720    1.000
    C42      C        0.70250    0.39540    0.90990    1.000
    C43      C        0.49160    0.69280    0.07430    1.000
    H38      H        0.46740    0.65080    0.06480    1.000
    C44      C        0.56300    0.69080    0.09690    1.000
    H39      H        0.58710    0.64850    0.10100    1.000
    C45      C        0.80240    0.70420    0.67830    1.000
    H40      H        0.77500    0.67110    0.63990    1.000
    C46      C        0.80350    0.70330    0.79570    1.000
    H41      H        0.77800    0.66890    0.83420    1.000
    N4       N        0.77410    0.57070    0.09130    1.000
    H42      H        0.88370    0.74180    0.24150    1.000
    O13      O        0.66210    0.35470    0.95710    1.000
    O14      O        0.72750    0.38940    0.81380    1.000
    O15      O        0.70440    0.69590    0.16020    1.000
    O16      O        0.84130    0.69490    0.02290    1.000
    C47      C        0.62660    0.20210    0.17730    1.000
    C48      C        0.62460    0.19940    0.29230    1.000
    H43      H        0.60180    0.16810    0.13680    1.000
    H44      H        0.59980    0.16390    0.32910    1.000
    Co5      Co       0.69202    0.16249    0.67730    1.000
    C49      C        0.78510    0.03850    0.61900    1.000
    H45      H        0.81160    0.05470    0.68060    1.000
    C50      C        0.81040    0.98180    0.56190    1.000
    H46      H        0.85350    0.96060    0.58440    1.000
    C51      C        0.77340    0.95710    0.47450    1.000
    C52      C        0.70950    0.99030    0.44430    1.000
    H47      H        0.68220    0.97500    0.38280    1.000
    C53      C        0.68780    0.04540    0.50580    1.000
    H48      H        0.64390    0.06660    0.48720    1.000
    C54      C        0.79750    0.89540    0.40990    1.000
    C55      C        0.00840    0.19280    0.57430    1.000
    H49      H        0.03260    0.15080    0.56480    1.000
    C56      C        0.93700    0.19080    0.59690    1.000
    H50      H        0.91290    0.14850    0.60100    1.000
    C57      C        0.69760    0.20420    0.17830    1.000
    H51      H        0.72500    0.17110    0.13990    1.000
    C58      C        0.69650    0.20330    0.29570    1.000
    H52      H        0.72200    0.16890    0.33420    1.000
    N5       N        0.72590    0.07070    0.59130    1.000
    H53      H        0.61630    0.24180    0.74150    1.000
    O17      O        0.83790    0.85470    0.45710    1.000
    O18      O        0.77250    0.88940    0.31380    1.000
    O19      O        0.79560    0.19590    0.66020    1.000
    O20      O        0.65870    0.19490    0.52290    1.000
    C59      C        0.87340    0.70210    0.67730    1.000
    C60      C        0.87540    0.69940    0.79230    1.000
    H54      H        0.89820    0.66810    0.63680    1.000
    H55      H        0.90020    0.66390    0.82910    1.000
    Co6      Co       0.80798    0.83751    0.17730    1.000
    C61      C        0.71490    0.96150    0.11900    1.000
    H56      H        0.68840    0.94530    0.18060    1.000
    C62      C        0.68960    0.01820    0.06190    1.000
    H57      H        0.64650    0.03940    0.08440    1.000
    C63      C        0.72660    0.04290    0.97450    1.000
    C64      C        0.79050    0.00970    0.94430    1.000
    H58      H        0.81780    0.02500    0.88280    1.000
    C65      C        0.81220    0.95460    0.00580    1.000
    H59      H        0.85610    0.93340    0.98720    1.000
    C66      C        0.70250    0.10460    0.90990    1.000
    C67      C        0.49160    0.80720    0.07430    1.000
    H60      H        0.46740    0.84920    0.06480    1.000
    C68      C        0.56300    0.80920    0.09690    1.000
    H61      H        0.58710    0.85150    0.10100    1.000
    C69      C        0.80240    0.79580    0.67830    1.000
    H62      H        0.77500    0.82890    0.63990    1.000
    C70      C        0.80350    0.79670    0.79570    1.000
    H63      H        0.77800    0.83110    0.83420    1.000
    N6       N        0.77410    0.92930    0.09130    1.000
    H64      H        0.88370    0.75820    0.24150    1.000
    O21      O        0.66210    0.14530    0.95710    1.000
    O22      O        0.72750    0.11060    0.81380    1.000
    O23      O        0.70440    0.80410    0.16020    1.000
    O24      O        0.84130    0.80510    0.02290    1.000
    C71      C        0.62660    0.29790    0.17730    1.000
    C72      C        0.62460    0.30060    0.29230    1.000
    H65      H        0.60180    0.33190    0.13680    1.000
    H66      H        0.59980    0.33610    0.32910    1.000
    Co7      Co       0.30798    0.66249    0.32270    1.000
    C73      C        0.21490    0.53850    0.38100    1.000
    H67      H        0.18840    0.55470    0.31940    1.000
    C74      C        0.18960    0.48180    0.43810    1.000
    H68      H        0.14650    0.46060    0.41560    1.000
    C75      C        0.22660    0.45710    0.52550    1.000
    C76      C        0.29050    0.49030    0.55570    1.000
    H69      H        0.31780    0.47500    0.61720    1.000
    C77      C        0.31220    0.54540    0.49420    1.000
    H70      H        0.35610    0.56660    0.51280    1.000
    C78      C        0.20250    0.39540    0.59010    1.000
    C79      C        0.99160    0.69280    0.42570    1.000
    H71      H        0.96740    0.65080    0.43520    1.000
    C80      C        0.06300    0.69080    0.40310    1.000
    H72      H        0.08710    0.64850    0.39900    1.000
    C81      C        0.30240    0.70420    0.82170    1.000
    H73      H        0.27500    0.67110    0.86010    1.000
    C82      C        0.30350    0.70330    0.70430    1.000
    H74      H        0.27800    0.66890    0.66580    1.000
    N7       N        0.27410    0.57070    0.40870    1.000
    H75      H        0.38370    0.74180    0.25850    1.000
    O25      O        0.16210    0.35470    0.54290    1.000
    O26      O        0.22750    0.38940    0.68620    1.000
    O27      O        0.20440    0.69590    0.33980    1.000
    O28      O        0.34130    0.69490    0.47710    1.000
    C83      C        0.12660    0.20210    0.32270    1.000
    C84      C        0.12460    0.19940    0.20770    1.000
    H76      H        0.10180    0.16810    0.36320    1.000
    H77      H        0.09980    0.16390    0.17090    1.000
    Co8      Co       0.19202    0.33751    0.82270    1.000
    C85      C        0.28510    0.46150    0.88100    1.000
    H78      H        0.31160    0.44530    0.81940    1.000
    C86      C        0.31040    0.51820    0.93810    1.000
    H79      H        0.35350    0.53940    0.91560    1.000
    C87      C        0.27340    0.54290    0.02550    1.000
    C88      C        0.20950    0.50970    0.05570    1.000
    H80      H        0.18220    0.52500    0.11720    1.000
    C89      C        0.18780    0.45460    0.99420    1.000
    H81      H        0.14390    0.43340    0.01280    1.000
    C90      C        0.29750    0.60460    0.09010    1.000
    C91      C        0.50840    0.30720    0.92570    1.000
    H82      H        0.53260    0.34920    0.93520    1.000
    C92      C        0.43700    0.30920    0.90310    1.000
    H83      H        0.41290    0.35150    0.89900    1.000
    C93      C        0.19760    0.29580    0.32170    1.000
    H84      H        0.22500    0.32890    0.36010    1.000
    C94      C        0.19650    0.29670    0.20430    1.000
    H85      H        0.22200    0.33110    0.16580    1.000
    N8       N        0.22590    0.42930    0.90870    1.000
    H86      H        0.11630    0.25820    0.75850    1.000
    O29      O        0.33790    0.64530    0.04290    1.000
    O30      O        0.27250    0.61060    0.18620    1.000
    O31      O        0.29560    0.30410    0.83980    1.000
    O32      O        0.15870    0.30510    0.97710    1.000
    C95      C        0.37340    0.79790    0.82270    1.000
    C96      C        0.37540    0.80060    0.70770    1.000
    H87      H        0.39820    0.83190    0.86320    1.000
    H88      H        0.40020    0.83610    0.67090    1.000
    Co9      Co       0.84040    0.75000    0.43741    1.000
    C97      C        0.09920    0.75000    0.38640    1.000
    C98      C        0.17660    0.75000    0.35310    1.000
    C99      C        0.34010    0.75000    0.64620    1.000
    C100     C        0.33820    0.75000    0.52200    1.000
    O33      O        0.34120    0.75000    0.23810    1.000
    N9       N        0.95400    0.75000    0.43610    1.000
    N10      N        0.33840    0.75000    0.87980    1.000
    Co10     Co       0.65960    0.25000    0.93741    1.000
    C101     C        0.40080    0.25000    0.88640    1.000
    C102     C        0.32340    0.25000    0.85310    1.000
    C103     C        0.15990    0.25000    0.14620    1.000
    C104     C        0.16180    0.25000    0.02200    1.000
    O34      O        0.15880    0.25000    0.73810    1.000
    N11      N        0.54600    0.25000    0.93610    1.000
    N12      N        0.16160    0.25000    0.37980    1.000
    Co11     Co       0.15960    0.25000    0.56259    1.000
    C105     C        0.90080    0.25000    0.61360    1.000
    C106     C        0.82340    0.25000    0.64690    1.000
    C107     C        0.65990    0.25000    0.35380    1.000
    C108     C        0.66180    0.25000    0.47800    1.000
    O35      O        0.65880    0.25000    0.76190    1.000
    N13      N        0.04600    0.25000    0.56390    1.000
    N14      N        0.66160    0.25000    0.12020    1.000
    Co12     Co       0.34040    0.75000    0.06259    1.000
    C109     C        0.59920    0.75000    0.11360    1.000
    C110     C        0.67660    0.75000    0.14690    1.000
    C111     C        0.84010    0.75000    0.85380    1.000
    C112     C        0.83820    0.75000    0.97800    1.000
    O36      O        0.84120    0.75000    0.26190    1.000
    N15      N        0.45400    0.75000    0.06390    1.000
    N16      N        0.83840    0.75000    0.62020    1.000
