# CIF file generated by openbabel 3.1.0, see https://openbabel.org
data_I
_chemical_name_common 'CAWDOU_charged'
_cell_length_a 13.7327
_cell_length_b 16.4189
_cell_length_c 16.5975
_cell_angle_alpha 90
_cell_angle_beta 90
_cell_angle_gamma 90
_space_group_name_H-M_alt 'P 1'
_space_group_name_Hall 'P 1'
loop_
    _symmetry_equiv_pos_as_xyz
    x,y,z
loop_
    _atom_site_label
    _atom_site_type_symbol
    _atom_site_fract_x
    _atom_site_fract_y
    _atom_site_fract_z
    _atom_site_occupancy
    Cu1      Cu       0.62366    0.56111    0.67796    1.000
    Cu2      Cu       0.87634    0.43889    0.17796    1.000
    Cu3      Cu       0.37634    0.06111    0.82204    1.000
    Cu4      Cu       0.12366    0.93889    0.32204    1.000
    H1       H        0.44440    0.58070    0.58100    1.000
    H2       H        0.34530    0.49990    0.49740    1.000
    H3       H        0.50880    0.30250    0.54660    1.000
    H4       H        0.60190    0.38090    0.63160    1.000
    H5       H        0.01800    0.50850    0.28450    1.000
    H6       H        0.14590    0.47250    0.36680    1.000
    H7       H        0.13160    0.24570    0.27640    1.000
    H8       H        0.99080    0.28400    0.20730    1.000
    H9       H        0.74910    0.53630    0.53110    1.000
    H10      H        0.89040    0.46230    0.49530    1.000
    H11      H        0.90510    0.37610    0.72120    1.000
    H12      H        0.76190    0.45390    0.75220    1.000
    H13      H        0.36200    0.11500    0.64030    1.000
    H14      H        0.26720    0.19920    0.56640    1.000
    H15      H        0.09670    0.24110    0.75850    1.000
    H16      H        0.19390    0.15770    0.83270    1.000
    H17      H        0.64100    0.70450    0.60040    1.000
    H18      H        0.60780    0.64840    0.53530    1.000
    H19      H        0.05560    0.41930    0.08100    1.000
    H20      H        0.15470    0.50010    0.99740    1.000
    H21      H        0.99120    0.69750    0.04660    1.000
    H22      H        0.89810    0.61910    0.13160    1.000
    H23      H        0.48200    0.49150    0.78450    1.000
    H24      H        0.35410    0.52750    0.86680    1.000
    H25      H        0.36840    0.75430    0.77640    1.000
    H26      H        0.50920    0.71600    0.70730    1.000
    H27      H        0.75090    0.46370    0.03110    1.000
    H28      H        0.60960    0.53770    0.99530    1.000
    H29      H        0.59490    0.62390    0.22120    1.000
    H30      H        0.73810    0.54610    0.25220    1.000
    H31      H        0.13800    0.88500    0.14030    1.000
    H32      H        0.23280    0.80080    0.06640    1.000
    H33      H        0.40330    0.75890    0.25850    1.000
    H34      H        0.30610    0.84230    0.33270    1.000
    H35      H        0.85900    0.29550    0.10040    1.000
    H36      H        0.89220    0.35160    0.03530    1.000
    H37      H        0.55560    0.08070    0.91900    1.000
    H38      H        0.65470    0.99990    0.00260    1.000
    H39      H        0.49120    0.80250    0.95340    1.000
    H40      H        0.39810    0.88090    0.86840    1.000
    H41      H        0.98200    0.00850    0.21550    1.000
    H42      H        0.85410    0.97250    0.13320    1.000
    H43      H        0.86840    0.74570    0.22360    1.000
    H44      H        0.00920    0.78400    0.29270    1.000
    H45      H        0.25090    0.03630    0.96890    1.000
    H46      H        0.10960    0.96230    0.00470    1.000
    H47      H        0.09490    0.87610    0.77880    1.000
    H48      H        0.23810    0.95390    0.74780    1.000
    H49      H        0.63800    0.61500    0.85970    1.000
    H50      H        0.73280    0.69920    0.93360    1.000
    H51      H        0.90330    0.74110    0.74150    1.000
    H52      H        0.80610    0.65770    0.66730    1.000
    H53      H        0.35900    0.20450    0.89960    1.000
    H54      H        0.39220    0.14840    0.96470    1.000
    H55      H        0.94440    0.91930    0.41900    1.000
    H56      H        0.84530    0.00010    0.50260    1.000
    H57      H        0.00880    0.19750    0.45340    1.000
    H58      H        0.10190    0.11910    0.36840    1.000
    H59      H        0.51800    0.99150    0.71550    1.000
    H60      H        0.64590    0.02750    0.63320    1.000
    H61      H        0.63160    0.25430    0.72360    1.000
    H62      H        0.49080    0.21600    0.79270    1.000
    H63      H        0.24910    0.96370    0.46890    1.000
    H64      H        0.39040    0.03770    0.50470    1.000
    H65      H        0.40510    0.12390    0.27880    1.000
    H66      H        0.26190    0.04610    0.24780    1.000
    H67      H        0.86200    0.38500    0.35970    1.000
    H68      H        0.76720    0.30080    0.43360    1.000
    H69      H        0.59670    0.25890    0.24150    1.000
    H70      H        0.69390    0.34230    0.16730    1.000
    H71      H        0.14100    0.79550    0.39960    1.000
    H72      H        0.10780    0.85160    0.46470    1.000
    C1       C        0.45790    0.52450    0.57340    1.000
    C2       C        0.39840    0.47560    0.52510    1.000
    C3       C        0.41450    0.39290    0.51660    1.000
    C4       C        0.49390    0.35850    0.55410    1.000
    C5       C        0.55090    0.40620    0.60220    1.000
    C6       C        0.34970    0.34880    0.46470    1.000
    C7       C        0.23730    0.32970    0.38050    1.000
    C8       C        0.04000    0.45360    0.28460    1.000
    C9       C        0.11670    0.43250    0.33320    1.000
    C10      C        0.15120    0.35570    0.33380    1.000
    C11      C        0.10660    0.29940    0.28160    1.000
    C12      C        0.02550    0.32350    0.23780    1.000
    C13      C        0.78080    0.50330    0.57010    1.000
    C14      C        0.86490    0.46000    0.54850    1.000
    C15      C        0.90790    0.41530    0.60600    1.000
    C16      C        0.87400    0.40900    0.68170    1.000
    C17      C        0.78810    0.45510    0.69930    1.000
    C18      C        0.99690    0.36630    0.58560    1.000
    C19      C        0.11310    0.28140    0.60800    1.000
    C20      C        0.30860    0.14160    0.66540    1.000
    C21      C        0.25190    0.19070    0.62160    1.000
    C22      C        0.17140    0.22960    0.65410    1.000
    C23      C        0.15150    0.21590    0.73400    1.000
    C24      C        0.20980    0.16660    0.77770    1.000
    C25      C        0.04210    0.47550    0.07340    1.000
    C26      C        0.10160    0.52440    0.02510    1.000
    C27      C        0.08550    0.60710    0.01660    1.000
    C28      C        0.00610    0.64150    0.05410    1.000
    C29      C        0.94910    0.59380    0.10220    1.000
    C30      C        0.15030    0.65120    0.96470    1.000
    C31      C        0.26270    0.67030    0.88050    1.000
    C32      C        0.46000    0.54640    0.78460    1.000
    C33      C        0.38330    0.56750    0.83320    1.000
    C34      C        0.34880    0.64430    0.83380    1.000
    C35      C        0.39340    0.70060    0.78160    1.000
    C36      C        0.47450    0.67650    0.73780    1.000
    C37      C        0.71920    0.49670    0.07010    1.000
    C38      C        0.63510    0.54000    0.04850    1.000
    C39      C        0.59210    0.58470    0.10600    1.000
    C40      C        0.62600    0.59100    0.18170    1.000
    C41      C        0.71190    0.54490    0.19930    1.000
    C42      C        0.50310    0.63370    0.08560    1.000
    C43      C        0.38690    0.71860    0.10800    1.000
    C44      C        0.19140    0.85840    0.16540    1.000
    C45      C        0.24810    0.80930    0.12160    1.000
    C46      C        0.32860    0.77040    0.15410    1.000
    C47      C        0.34850    0.78410    0.23400    1.000
    C48      C        0.29020    0.83340    0.27770    1.000
    C49      C        0.54210    0.02450    0.92660    1.000
    C50      C        0.60160    0.97560    0.97490    1.000
    C51      C        0.58550    0.89290    0.98340    1.000
    C52      C        0.50610    0.85850    0.94590    1.000
    C53      C        0.44910    0.90620    0.89780    1.000
    C54      C        0.65030    0.84880    0.03530    1.000
    C55      C        0.76270    0.82970    0.11950    1.000
    C56      C        0.96000    0.95360    0.21540    1.000
    C57      C        0.88330    0.93250    0.16680    1.000
    C58      C        0.84880    0.85570    0.16620    1.000
    C59      C        0.89340    0.79940    0.21840    1.000
    C60      C        0.97450    0.82350    0.26220    1.000
    C61      C        0.21920    0.00330    0.92990    1.000
    C62      C        0.13510    0.96000    0.95150    1.000
    C63      C        0.09210    0.91530    0.89400    1.000
    C64      C        0.12600    0.90900    0.81830    1.000
    C65      C        0.21190    0.95510    0.80070    1.000
    C66      C        0.00310    0.86630    0.91440    1.000
    C67      C        0.88690    0.78140    0.89200    1.000
    C68      C        0.69140    0.64160    0.83460    1.000
    C69      C        0.74810    0.69070    0.87840    1.000
    C70      C        0.82860    0.72960    0.84590    1.000
    C71      C        0.84850    0.71590    0.76600    1.000
    C72      C        0.79020    0.66660    0.72230    1.000
    C73      C        0.95790    0.97550    0.42660    1.000
    C74      C        0.89840    0.02440    0.47490    1.000
    C75      C        0.91450    0.10710    0.48340    1.000
    C76      C        0.99390    0.14150    0.44590    1.000
    C77      C        0.05090    0.09380    0.39780    1.000
    C78      C        0.84970    0.15120    0.53530    1.000
    C79      C        0.73730    0.17030    0.61950    1.000
    C80      C        0.54000    0.04640    0.71540    1.000
    C81      C        0.61670    0.06750    0.66680    1.000
    C82      C        0.65120    0.14430    0.66620    1.000
    C83      C        0.60660    0.20060    0.71840    1.000
    C84      C        0.52550    0.17650    0.76220    1.000
    C85      C        0.28080    0.99670    0.42990    1.000
    C86      C        0.36490    0.04000    0.45150    1.000
    C87      C        0.40790    0.08470    0.39400    1.000
    C88      C        0.37400    0.09100    0.31830    1.000
    C89      C        0.28810    0.04490    0.30070    1.000
    C90      C        0.49690    0.13370    0.41440    1.000
    C91      C        0.61310    0.21860    0.39200    1.000
    C92      C        0.80860    0.35840    0.33460    1.000
    C93      C        0.75190    0.30930    0.37840    1.000
    C94      C        0.67140    0.27040    0.34590    1.000
    C95      C        0.65150    0.28410    0.26600    1.000
    C96      C        0.70980    0.33340    0.22230    1.000
    N1       N        0.53870    0.48700    0.61030    1.000
    N2       N        0.35040    0.27410    0.44270    1.000
    N3       N        0.27370    0.25980    0.38850    1.000
    N4       N        0.99560    0.39950    0.23750    1.000
    N5       N        0.74470    0.49900    0.64380    1.000
    N6       N        0.04250    0.35920    0.51970    1.000
    N7       N        0.11900    0.30730    0.53300    1.000
    N8       N        0.29120    0.12850    0.74690    1.000
    N9       N        0.96130    0.51300    0.11030    1.000
    N10      N        0.14960    0.72590    0.94270    1.000
    N11      N        0.22630    0.74020    0.88850    1.000
    N12      N        0.50440    0.60050    0.73750    1.000
    N13      N        0.75530    0.50100    0.14380    1.000
    N14      N        0.45750    0.64080    0.01970    1.000
    N15      N        0.38100    0.69270    0.03300    1.000
    N16      N        0.20880    0.87150    0.24690    1.000
    N17      N        0.46130    0.98700    0.88970    1.000
    N18      N        0.64960    0.77410    0.05730    1.000
    N19      N        0.72630    0.75980    0.11150    1.000
    N20      N        0.00440    0.89950    0.26250    1.000
    N21      N        0.25530    0.99900    0.85620    1.000
    N22      N        0.95750    0.85920    0.98030    1.000
    N23      N        0.88100    0.80730    0.96700    1.000
    N24      N        0.70880    0.62850    0.75310    1.000
    N25      N        0.03870    0.01300    0.38970    1.000
    N26      N        0.85040    0.22590    0.55730    1.000
    N27      N        0.77370    0.24020    0.61150    1.000
    N28      N        0.49560    0.10050    0.76250    1.000
    N29      N        0.24470    0.00100    0.35620    1.000
    N30      N        0.54250    0.14080    0.48030    1.000
    N31      N        0.61900    0.19270    0.46700    1.000
    N32      N        0.79120    0.37150    0.25310    1.000
    O1       O        0.27640    0.38900    0.42570    1.000
    O2       O        0.03460    0.31940    0.64510    1.000
    O3       O        0.62690    0.65390    0.58450    1.000
    O4       O        0.22360    0.61100    0.92570    1.000
    O5       O        0.46540    0.68060    0.14510    1.000
    O6       O        0.87310    0.34610    0.08450    1.000
    O7       O        0.72360    0.88900    0.07430    1.000
    O8       O        0.96540    0.81940    0.85490    1.000
    O9       O        0.37310    0.15390    0.91550    1.000
    O10      O        0.77640    0.11100    0.57430    1.000
    O11      O        0.53460    0.18060    0.35490    1.000
    O12      O        0.12690    0.84610    0.41550    1.000
    Cl1      Cl       0.62210    0.37580    0.87170    1.000
    O13      O        0.55500    0.36190    0.80790    1.000
    O14      O        0.64880    0.46090    0.87090    1.000
    O15      O        0.70670    0.32630    0.86060    1.000
    O16      O        0.57440    0.36020    0.94720    1.000
    Cl2      Cl       0.87790    0.62420    0.37170    1.000
    O17      O        0.94500    0.63810    0.30790    1.000
    O18      O        0.85120    0.53910    0.37090    1.000
    O19      O        0.79330    0.67370    0.36060    1.000
    O20      O        0.92560    0.63980    0.44720    1.000
    Cl3      Cl       0.37790    0.87580    0.62830    1.000
    O21      O        0.44500    0.86190    0.69210    1.000
    O22      O        0.35120    0.96090    0.62910    1.000
    O23      O        0.29330    0.82630    0.63940    1.000
    O24      O        0.42560    0.86020    0.55280    1.000
    Cl4      Cl       0.12210    0.12420    0.12830    1.000
    O25      O        0.05500    0.13810    0.19210    1.000
    O26      O        0.14880    0.03910    0.12910    1.000
    O27      O        0.20670    0.17370    0.13940    1.000
    O28      O        0.07440    0.13980    0.05280    1.000
