# CIF file generated by openbabel 3.1.0, see https://openbabel.org
data_I
_chemical_name_common 'image0'
_cell_length_a 7.1728
_cell_length_b 23.7537
_cell_length_c 30.701
_cell_angle_alpha 90
_cell_angle_beta 90
_cell_angle_gamma 90
_space_group_name_H-M_alt 'P 1'
_space_group_name_Hall 'P 1'
loop_
    _symmetry_equiv_pos_as_xyz
    x,y,z
loop_
    _atom_site_label
    _atom_site_type_symbol
    _atom_site_fract_x
    _atom_site_fract_y
    _atom_site_fract_z
    _atom_site_occupancy
    Ag1      Ag       0.19537    0.76997    0.29077    1.000
    Ag2      Ag       0.53058    0.44286    0.48430    1.000
    O1       O        0.34500    0.69583    0.31401    1.000
    O2       O        0.45380    0.66720    0.24919    1.000
    O3       O        0.48230    0.58781    0.44642    1.000
    O4       O        0.66120    0.51125    0.44156    1.000
    N1       N        0.10760    0.81258    0.35764    1.000
    N2       N        0.01720    0.87425    0.43158    1.000
    C1       C        0.99960    0.85830    0.35558    1.000
    H1       H        0.95260    0.87030    0.32820    1.000
    C2       C        0.95500    0.88851    0.39264    1.000
    H2       H        0.87680    0.92060    0.39000    1.000
    C3       C        0.12430    0.82818    0.43372    1.000
    H3       H        0.17050    0.81630    0.46120    1.000
    C4       C        0.16910    0.79756    0.39699    1.000
    H4       H        0.24540    0.76510    0.39980    1.000
    C5       C        0.43500    0.66348    0.28982    1.000
    C6       C        0.53070    0.61453    0.31173    1.000
    C7       C        0.63940    0.57706    0.28768    1.000
    H5       H        0.65010    0.58140    0.25700    1.000
    C8       C        0.73210    0.53338    0.30865    1.000
    H6       H        0.80670    0.50790    0.29240    1.000
    C9       C        0.71570    0.52709    0.35285    1.000
    H7       H        0.78130    0.49760    0.36700    1.000
    C10      C        0.60470    0.56322    0.37733    1.000
    C11      C        0.51340    0.60724    0.35645    1.000
    H8       H        0.43870    0.63250    0.37290    1.000
    C12      C        0.58100    0.55366    0.42540    1.000
    Ag3      Ag       0.69537    0.26997    0.79077    1.000
    Ag4      Ag       0.03058    0.94286    0.98430    1.000
    O5       O        0.84500    0.19583    0.81401    1.000
    O6       O        0.95380    0.16720    0.74919    1.000
    O7       O        0.98230    0.08781    0.94642    1.000
    O8       O        0.16120    0.01125    0.94156    1.000
    N3       N        0.60760    0.31258    0.85764    1.000
    N4       N        0.51720    0.37425    0.93158    1.000
    C13      C        0.49960    0.35830    0.85558    1.000
    H9       H        0.45260    0.37030    0.82820    1.000
    C14      C        0.45500    0.38851    0.89264    1.000
    H10      H        0.37680    0.42060    0.89000    1.000
    C15      C        0.62430    0.32818    0.93372    1.000
    H11      H        0.67050    0.31630    0.96120    1.000
    C16      C        0.66910    0.29756    0.89699    1.000
    H12      H        0.74540    0.26510    0.89980    1.000
    C17      C        0.93500    0.16348    0.78982    1.000
    C18      C        0.03070    0.11453    0.81173    1.000
    C19      C        0.13940    0.07706    0.78768    1.000
    H13      H        0.15010    0.08140    0.75700    1.000
    C20      C        0.23210    0.03338    0.80865    1.000
    H14      H        0.30670    0.00790    0.79240    1.000
    C21      C        0.21570    0.02709    0.85285    1.000
    H15      H        0.28130    0.99760    0.86700    1.000
    C22      C        0.10470    0.06322    0.87733    1.000
    C23      C        0.01340    0.10724    0.85645    1.000
    H16      H        0.93870    0.13250    0.87290    1.000
    C24      C        0.08100    0.05366    0.92540    1.000
    Ag5      Ag       0.30463    0.23003    0.79077    1.000
    Ag6      Ag       0.96942    0.55714    0.98430    1.000
    O9       O        0.15500    0.30417    0.81401    1.000
    O10      O        0.04620    0.33280    0.74919    1.000
    O11      O        0.01770    0.41219    0.94642    1.000
    O12      O        0.83880    0.48875    0.94156    1.000
    N5       N        0.39240    0.18742    0.85764    1.000
    N6       N        0.48280    0.12575    0.93158    1.000
    C25      C        0.50040    0.14170    0.85558    1.000
    H17      H        0.54740    0.12970    0.82820    1.000
    C26      C        0.54500    0.11149    0.89264    1.000
    H18      H        0.62320    0.07940    0.89000    1.000
    C27      C        0.37570    0.17182    0.93372    1.000
    H19      H        0.32950    0.18370    0.96120    1.000
    C28      C        0.33090    0.20244    0.89699    1.000
    H20      H        0.25460    0.23490    0.89980    1.000
    C29      C        0.06500    0.33652    0.78982    1.000
    C30      C        0.96930    0.38547    0.81173    1.000
    C31      C        0.86060    0.42294    0.78768    1.000
    H21      H        0.84990    0.41860    0.75700    1.000
    C32      C        0.76790    0.46662    0.80865    1.000
    H22      H        0.69330    0.49210    0.79240    1.000
    C33      C        0.78430    0.47291    0.85285    1.000
    H23      H        0.71870    0.50240    0.86700    1.000
    C34      C        0.89530    0.43678    0.87733    1.000
    C35      C        0.98660    0.39276    0.85645    1.000
    H24      H        0.06130    0.36750    0.87290    1.000
    C36      C        0.91900    0.44634    0.92540    1.000
    Ag7      Ag       0.80463    0.73003    0.29077    1.000
    Ag8      Ag       0.46942    0.05714    0.48430    1.000
    O13      O        0.65500    0.80417    0.31401    1.000
    O14      O        0.54620    0.83280    0.24919    1.000
    O15      O        0.51770    0.91219    0.44642    1.000
    O16      O        0.33880    0.98875    0.44156    1.000
    N7       N        0.89240    0.68742    0.35764    1.000
    N8       N        0.98280    0.62575    0.43158    1.000
    C37      C        0.00040    0.64170    0.35558    1.000
    H25      H        0.04740    0.62970    0.32820    1.000
    C38      C        0.04500    0.61149    0.39264    1.000
    H26      H        0.12320    0.57940    0.39000    1.000
    C39      C        0.87570    0.67182    0.43372    1.000
    H27      H        0.82950    0.68370    0.46120    1.000
    C40      C        0.83090    0.70244    0.39699    1.000
    H28      H        0.75460    0.73490    0.39980    1.000
    C41      C        0.56500    0.83652    0.28982    1.000
    C42      C        0.46930    0.88547    0.31173    1.000
    C43      C        0.36060    0.92294    0.28768    1.000
    H29      H        0.34990    0.91860    0.25700    1.000
    C44      C        0.26790    0.96662    0.30865    1.000
    H30      H        0.19330    0.99210    0.29240    1.000
    C45      C        0.28430    0.97291    0.35285    1.000
    H31      H        0.21870    0.00240    0.36700    1.000
    C46      C        0.39530    0.93678    0.37733    1.000
    C47      C        0.48660    0.89276    0.35645    1.000
    H32      H        0.56130    0.86750    0.37290    1.000
    C48      C        0.41900    0.94634    0.42540    1.000
    Ag9      Ag       0.80463    0.26997    0.20923    1.000
    Ag10     Ag       0.46942    0.94286    0.01570    1.000
    O17      O        0.65500    0.19583    0.18599    1.000
    O18      O        0.54620    0.16720    0.25081    1.000
    O19      O        0.51770    0.08781    0.05358    1.000
    O20      O        0.33880    0.01125    0.05844    1.000
    N9       N        0.89240    0.31258    0.14236    1.000
    N10      N        0.98280    0.37425    0.06842    1.000
    C49      C        0.00040    0.35830    0.14442    1.000
    H33      H        0.04740    0.37030    0.17180    1.000
    C50      C        0.04500    0.38851    0.10736    1.000
    H34      H        0.12320    0.42060    0.11000    1.000
    C51      C        0.87570    0.32818    0.06628    1.000
    H35      H        0.82950    0.31630    0.03880    1.000
    C52      C        0.83090    0.29756    0.10301    1.000
    H36      H        0.75460    0.26510    0.10020    1.000
    C53      C        0.56500    0.16348    0.21018    1.000
    C54      C        0.46930    0.11453    0.18827    1.000
    C55      C        0.36060    0.07706    0.21232    1.000
    H37      H        0.34990    0.08140    0.24300    1.000
    C56      C        0.26790    0.03338    0.19135    1.000
    H38      H        0.19330    0.00790    0.20760    1.000
    C57      C        0.28430    0.02709    0.14715    1.000
    H39      H        0.21870    0.99760    0.13300    1.000
    C58      C        0.39530    0.06322    0.12267    1.000
    C59      C        0.48660    0.10724    0.14355    1.000
    H40      H        0.56130    0.13250    0.12710    1.000
    C60      C        0.41900    0.05366    0.07460    1.000
    Ag11     Ag       0.30463    0.76997    0.70923    1.000
    Ag12     Ag       0.96942    0.44286    0.51570    1.000
    O21      O        0.15500    0.69583    0.68599    1.000
    O22      O        0.04620    0.66720    0.75081    1.000
    O23      O        0.01770    0.58781    0.55358    1.000
    O24      O        0.83880    0.51125    0.55844    1.000
    N11      N        0.39240    0.81258    0.64236    1.000
    N12      N        0.48280    0.87425    0.56842    1.000
    C61      C        0.50040    0.85830    0.64442    1.000
    H41      H        0.54740    0.87030    0.67180    1.000
    C62      C        0.54500    0.88851    0.60736    1.000
    H42      H        0.62320    0.92060    0.61000    1.000
    C63      C        0.37570    0.82818    0.56628    1.000
    H43      H        0.32950    0.81630    0.53880    1.000
    C64      C        0.33090    0.79756    0.60301    1.000
    H44      H        0.25460    0.76510    0.60020    1.000
    C65      C        0.06500    0.66348    0.71018    1.000
    C66      C        0.96930    0.61453    0.68827    1.000
    C67      C        0.86060    0.57706    0.71232    1.000
    H45      H        0.84990    0.58140    0.74300    1.000
    C68      C        0.76790    0.53338    0.69135    1.000
    H46      H        0.69330    0.50790    0.70760    1.000
    C69      C        0.78430    0.52709    0.64715    1.000
    H47      H        0.71870    0.49760    0.63300    1.000
    C70      C        0.89530    0.56322    0.62267    1.000
    C71      C        0.98660    0.60724    0.64355    1.000
    H48      H        0.06130    0.63250    0.62710    1.000
    C72      C        0.91900    0.55366    0.57460    1.000
    Ag13     Ag       0.69537    0.73003    0.70923    1.000
    Ag14     Ag       0.03058    0.05714    0.51570    1.000
    O25      O        0.84500    0.80417    0.68599    1.000
    O26      O        0.95380    0.83280    0.75081    1.000
    O27      O        0.98230    0.91219    0.55358    1.000
    O28      O        0.16120    0.98875    0.55844    1.000
    N13      N        0.60760    0.68742    0.64236    1.000
    N14      N        0.51720    0.62575    0.56842    1.000
    C73      C        0.49960    0.64170    0.64442    1.000
    H49      H        0.45260    0.62970    0.67180    1.000
    C74      C        0.45500    0.61149    0.60736    1.000
    H50      H        0.37680    0.57940    0.61000    1.000
    C75      C        0.62430    0.67182    0.56628    1.000
    H51      H        0.67050    0.68370    0.53880    1.000
    C76      C        0.66910    0.70244    0.60301    1.000
    H52      H        0.74540    0.73490    0.60020    1.000
    C77      C        0.93500    0.83652    0.71018    1.000
    C78      C        0.03070    0.88547    0.68827    1.000
    C79      C        0.13940    0.92294    0.71232    1.000
    H53      H        0.15010    0.91860    0.74300    1.000
    C80      C        0.23210    0.96662    0.69135    1.000
    H54      H        0.30670    0.99210    0.70760    1.000
    C81      C        0.21570    0.97291    0.64715    1.000
    H55      H        0.28130    0.00240    0.63300    1.000
    C82      C        0.10470    0.93678    0.62267    1.000
    C83      C        0.01340    0.89276    0.64355    1.000
    H56      H        0.93870    0.86750    0.62710    1.000
    C84      C        0.08100    0.94634    0.57460    1.000
    Ag15     Ag       0.19537    0.23003    0.20923    1.000
    Ag16     Ag       0.53058    0.55714    0.01570    1.000
    O29      O        0.34500    0.30417    0.18599    1.000
    O30      O        0.45380    0.33280    0.25081    1.000
    O31      O        0.48230    0.41219    0.05358    1.000
    O32      O        0.66120    0.48875    0.05844    1.000
    N15      N        0.10760    0.18742    0.14236    1.000
    N16      N        0.01720    0.12575    0.06842    1.000
    C85      C        0.99960    0.14170    0.14442    1.000
    H57      H        0.95260    0.12970    0.17180    1.000
    C86      C        0.95500    0.11149    0.10736    1.000
    H58      H        0.87680    0.07940    0.11000    1.000
    C87      C        0.12430    0.17182    0.06628    1.000
    H59      H        0.17050    0.18370    0.03880    1.000
    C88      C        0.16910    0.20244    0.10301    1.000
    H60      H        0.24540    0.23490    0.10020    1.000
    C89      C        0.43500    0.33652    0.21018    1.000
    C90      C        0.53070    0.38547    0.18827    1.000
    C91      C        0.63940    0.42294    0.21232    1.000
    H61      H        0.65010    0.41860    0.24300    1.000
    C92      C        0.73210    0.46662    0.19135    1.000
    H62      H        0.80670    0.49210    0.20760    1.000
    C93      C        0.71570    0.47291    0.14715    1.000
    H63      H        0.78130    0.50240    0.13300    1.000
    C94      C        0.60470    0.43678    0.12267    1.000
    C95      C        0.51340    0.39276    0.14355    1.000
    H64      H        0.43870    0.36750    0.12710    1.000
    C96      C        0.58100    0.44634    0.07460    1.000
    Ag17     Ag       0.80463    0.23003    0.70923    1.000
    Ag18     Ag       0.46942    0.55714    0.51570    1.000
    O33      O        0.65500    0.30417    0.68599    1.000
    O34      O        0.54620    0.33280    0.75081    1.000
    O35      O        0.51770    0.41219    0.55358    1.000
    O36      O        0.33880    0.48875    0.55844    1.000
    N17      N        0.89240    0.18742    0.64236    1.000
    N18      N        0.98280    0.12575    0.56842    1.000
    C97      C        0.00040    0.14170    0.64442    1.000
    H65      H        0.04740    0.12970    0.67180    1.000
    C98      C        0.04500    0.11149    0.60736    1.000
    H66      H        0.12320    0.07940    0.61000    1.000
    C99      C        0.87570    0.17182    0.56628    1.000
    H67      H        0.82950    0.18370    0.53880    1.000
    C100     C        0.83090    0.20244    0.60301    1.000
    H68      H        0.75460    0.23490    0.60020    1.000
    C101     C        0.56500    0.33652    0.71018    1.000
    C102     C        0.46930    0.38547    0.68827    1.000
    C103     C        0.36060    0.42294    0.71232    1.000
    H69      H        0.34990    0.41860    0.74300    1.000
    C104     C        0.26790    0.46662    0.69135    1.000
    H70      H        0.19330    0.49210    0.70760    1.000
    C105     C        0.28430    0.47291    0.64715    1.000
    H71      H        0.21870    0.50240    0.63300    1.000
    C106     C        0.39530    0.43678    0.62267    1.000
    C107     C        0.48660    0.39276    0.64355    1.000
    H72      H        0.56130    0.36750    0.62710    1.000
    C108     C        0.41900    0.44634    0.57460    1.000
    Ag19     Ag       0.30463    0.73003    0.20923    1.000
    Ag20     Ag       0.96942    0.05714    0.01570    1.000
    O37      O        0.15500    0.80417    0.18599    1.000
    O38      O        0.04620    0.83280    0.25081    1.000
    O39      O        0.01770    0.91219    0.05358    1.000
    O40      O        0.83880    0.98875    0.05844    1.000
    N19      N        0.39240    0.68742    0.14236    1.000
    N20      N        0.48280    0.62575    0.06842    1.000
    C109     C        0.50040    0.64170    0.14442    1.000
    H73      H        0.54740    0.62970    0.17180    1.000
    C110     C        0.54500    0.61149    0.10736    1.000
    H74      H        0.62320    0.57940    0.11000    1.000
    C111     C        0.37570    0.67182    0.06628    1.000
    H75      H        0.32950    0.68370    0.03880    1.000
    C112     C        0.33090    0.70244    0.10301    1.000
    H76      H        0.25460    0.73490    0.10020    1.000
    C113     C        0.06500    0.83652    0.21018    1.000
    C114     C        0.96930    0.88547    0.18827    1.000
    C115     C        0.86060    0.92294    0.21232    1.000
    H77      H        0.84990    0.91860    0.24300    1.000
    C116     C        0.76790    0.96662    0.19135    1.000
    H78      H        0.69330    0.99210    0.20760    1.000
    C117     C        0.78430    0.97291    0.14715    1.000
    H79      H        0.71870    0.00240    0.13300    1.000
    C118     C        0.89530    0.93678    0.12267    1.000
    C119     C        0.98660    0.89276    0.14355    1.000
    H80      H        0.06130    0.86750    0.12710    1.000
    C120     C        0.91900    0.94634    0.07460    1.000
    Ag21     Ag       0.69537    0.76997    0.20923    1.000
    Ag22     Ag       0.03058    0.44286    0.01570    1.000
    O41      O        0.84500    0.69583    0.18599    1.000
    O42      O        0.95380    0.66720    0.25081    1.000
    O43      O        0.98230    0.58781    0.05358    1.000
    O44      O        0.16120    0.51125    0.05844    1.000
    N21      N        0.60760    0.81258    0.14236    1.000
    N22      N        0.51720    0.87425    0.06842    1.000
    C121     C        0.49960    0.85830    0.14442    1.000
    H81      H        0.45260    0.87030    0.17180    1.000
    C122     C        0.45500    0.88851    0.10736    1.000
    H82      H        0.37680    0.92060    0.11000    1.000
    C123     C        0.62430    0.82818    0.06628    1.000
    H83      H        0.67050    0.81630    0.03880    1.000
    C124     C        0.66910    0.79756    0.10301    1.000
    H84      H        0.74540    0.76510    0.10020    1.000
    C125     C        0.93500    0.66348    0.21018    1.000
    C126     C        0.03070    0.61453    0.18827    1.000
    C127     C        0.13940    0.57706    0.21232    1.000
    H85      H        0.15010    0.58140    0.24300    1.000
    C128     C        0.23210    0.53338    0.19135    1.000
    H86      H        0.30670    0.50790    0.20760    1.000
    C129     C        0.21570    0.52709    0.14715    1.000
    H87      H        0.28130    0.49760    0.13300    1.000
    C130     C        0.10470    0.56322    0.12267    1.000
    C131     C        0.01340    0.60724    0.14355    1.000
    H88      H        0.93870    0.63250    0.12710    1.000
    C132     C        0.08100    0.55366    0.07460    1.000
    Ag23     Ag       0.19537    0.26997    0.70923    1.000
    Ag24     Ag       0.53058    0.94286    0.51570    1.000
    O45      O        0.34500    0.19583    0.68599    1.000
    O46      O        0.45380    0.16720    0.75081    1.000
    O47      O        0.48230    0.08781    0.55358    1.000
    O48      O        0.66120    0.01125    0.55844    1.000
    N23      N        0.10760    0.31258    0.64236    1.000
    N24      N        0.01720    0.37425    0.56842    1.000
    C133     C        0.99960    0.35830    0.64442    1.000
    H89      H        0.95260    0.37030    0.67180    1.000
    C134     C        0.95500    0.38851    0.60736    1.000
    H90      H        0.87680    0.42060    0.61000    1.000
    C135     C        0.12430    0.32818    0.56628    1.000
    H91      H        0.17050    0.31630    0.53880    1.000
    C136     C        0.16910    0.29756    0.60301    1.000
    H92      H        0.24540    0.26510    0.60020    1.000
    C137     C        0.43500    0.16348    0.71018    1.000
    C138     C        0.53070    0.11453    0.68827    1.000
    C139     C        0.63940    0.07706    0.71232    1.000
    H93      H        0.65010    0.08140    0.74300    1.000
    C140     C        0.73210    0.03338    0.69135    1.000
    H94      H        0.80670    0.00790    0.70760    1.000
    C141     C        0.71570    0.02709    0.64715    1.000
    H95      H        0.78130    0.99760    0.63300    1.000
    C142     C        0.60470    0.06322    0.62267    1.000
    C143     C        0.51340    0.10724    0.64355    1.000
    H96      H        0.43870    0.13250    0.62710    1.000
    C144     C        0.58100    0.05366    0.57460    1.000
    Ag25     Ag       0.19537    0.73003    0.79077    1.000
    Ag26     Ag       0.53058    0.05714    0.98430    1.000
    O49      O        0.34500    0.80417    0.81401    1.000
    O50      O        0.45380    0.83280    0.74919    1.000
    O51      O        0.48230    0.91219    0.94642    1.000
    O52      O        0.66120    0.98875    0.94156    1.000
    N25      N        0.10760    0.68742    0.85764    1.000
    N26      N        0.01720    0.62575    0.93158    1.000
    C145     C        0.99960    0.64170    0.85558    1.000
    H97      H        0.95260    0.62970    0.82820    1.000
    C146     C        0.95500    0.61149    0.89264    1.000
    H98      H        0.87680    0.57940    0.89000    1.000
    C147     C        0.12430    0.67182    0.93372    1.000
    H99      H        0.17050    0.68370    0.96120    1.000
    C148     C        0.16910    0.70244    0.89699    1.000
    H100     H        0.24540    0.73490    0.89980    1.000
    C149     C        0.43500    0.83652    0.78982    1.000
    C150     C        0.53070    0.88547    0.81173    1.000
    C151     C        0.63940    0.92294    0.78768    1.000
    H101     H        0.65010    0.91860    0.75700    1.000
    C152     C        0.73210    0.96662    0.80865    1.000
    H102     H        0.80670    0.99210    0.79240    1.000
    C153     C        0.71570    0.97291    0.85285    1.000
    H103     H        0.78130    0.00240    0.86700    1.000
    C154     C        0.60470    0.93678    0.87733    1.000
    C155     C        0.51340    0.89276    0.85645    1.000
    H104     H        0.43870    0.86750    0.87290    1.000
    C156     C        0.58100    0.94634    0.92540    1.000
    Ag27     Ag       0.69537    0.23003    0.29077    1.000
    Ag28     Ag       0.03058    0.55714    0.48430    1.000
    O53      O        0.84500    0.30417    0.31401    1.000
    O54      O        0.95380    0.33280    0.24919    1.000
    O55      O        0.98230    0.41219    0.44642    1.000
    O56      O        0.16120    0.48875    0.44156    1.000
    N27      N        0.60760    0.18742    0.35764    1.000
    N28      N        0.51720    0.12575    0.43158    1.000
    C157     C        0.49960    0.14170    0.35558    1.000
    H105     H        0.45260    0.12970    0.32820    1.000
    C158     C        0.45500    0.11149    0.39264    1.000
    H106     H        0.37680    0.07940    0.39000    1.000
    C159     C        0.62430    0.17182    0.43372    1.000
    H107     H        0.67050    0.18370    0.46120    1.000
    C160     C        0.66910    0.20244    0.39699    1.000
    H108     H        0.74540    0.23490    0.39980    1.000
    C161     C        0.93500    0.33652    0.28982    1.000
    C162     C        0.03070    0.38547    0.31173    1.000
    C163     C        0.13940    0.42294    0.28768    1.000
    H109     H        0.15010    0.41860    0.25700    1.000
    C164     C        0.23210    0.46662    0.30865    1.000
    H110     H        0.30670    0.49210    0.29240    1.000
    C165     C        0.21570    0.47291    0.35285    1.000
    H111     H        0.28130    0.50240    0.36700    1.000
    C166     C        0.10470    0.43678    0.37733    1.000
    C167     C        0.01340    0.39276    0.35645    1.000
    H112     H        0.93870    0.36750    0.37290    1.000
    C168     C        0.08100    0.44634    0.42540    1.000
    Ag29     Ag       0.30463    0.26997    0.29077    1.000
    Ag30     Ag       0.96942    0.94286    0.48430    1.000
    O57      O        0.15500    0.19583    0.31401    1.000
    O58      O        0.04620    0.16720    0.24919    1.000
    O59      O        0.01770    0.08781    0.44642    1.000
    O60      O        0.83880    0.01125    0.44156    1.000
    N29      N        0.39240    0.31258    0.35764    1.000
    N30      N        0.48280    0.37425    0.43158    1.000
    C169     C        0.50040    0.35830    0.35558    1.000
    H113     H        0.54740    0.37030    0.32820    1.000
    C170     C        0.54500    0.38851    0.39264    1.000
    H114     H        0.62320    0.42060    0.39000    1.000
    C171     C        0.37570    0.32818    0.43372    1.000
    H115     H        0.32950    0.31630    0.46120    1.000
    C172     C        0.33090    0.29756    0.39699    1.000
    H116     H        0.25460    0.26510    0.39980    1.000
    C173     C        0.06500    0.16348    0.28982    1.000
    C174     C        0.96930    0.11453    0.31173    1.000
    C175     C        0.86060    0.07706    0.28768    1.000
    H117     H        0.84990    0.08140    0.25700    1.000
    C176     C        0.76790    0.03338    0.30865    1.000
    H118     H        0.69330    0.00790    0.29240    1.000
    C177     C        0.78430    0.02709    0.35285    1.000
    H119     H        0.71870    0.99760    0.36700    1.000
    C178     C        0.89530    0.06322    0.37733    1.000
    C179     C        0.98660    0.10724    0.35645    1.000
    H120     H        0.06130    0.13250    0.37290    1.000
    C180     C        0.91900    0.05366    0.42540    1.000
    Ag31     Ag       0.80463    0.76997    0.79077    1.000
    Ag32     Ag       0.46942    0.44286    0.98430    1.000
    O61      O        0.65500    0.69583    0.81401    1.000
    O62      O        0.54620    0.66720    0.74919    1.000
    O63      O        0.51770    0.58781    0.94642    1.000
    O64      O        0.33880    0.51125    0.94156    1.000
    N31      N        0.89240    0.81258    0.85764    1.000
    N32      N        0.98280    0.87425    0.93158    1.000
    C181     C        0.00040    0.85830    0.85558    1.000
    H121     H        0.04740    0.87030    0.82820    1.000
    C182     C        0.04500    0.88851    0.89264    1.000
    H122     H        0.12320    0.92060    0.89000    1.000
    C183     C        0.87570    0.82818    0.93372    1.000
    H123     H        0.82950    0.81630    0.96120    1.000
    C184     C        0.83090    0.79756    0.89699    1.000
    H124     H        0.75460    0.76510    0.89980    1.000
    C185     C        0.56500    0.66348    0.78982    1.000
    C186     C        0.46930    0.61453    0.81173    1.000
    C187     C        0.36060    0.57706    0.78768    1.000
    H125     H        0.34990    0.58140    0.75700    1.000
    C188     C        0.26790    0.53338    0.80865    1.000
    H126     H        0.19330    0.50790    0.79240    1.000
    C189     C        0.28430    0.52709    0.85285    1.000
    H127     H        0.21870    0.49760    0.86700    1.000
    C190     C        0.39530    0.56322    0.87733    1.000
    C191     C        0.48660    0.60724    0.85645    1.000
    H128     H        0.56130    0.63250    0.87290    1.000
    C192     C        0.41900    0.55366    0.92540    1.000
