# CIF file generated by openbabel 3.1.0, see https://openbabel.org
data_I
_chemical_name_common 'EVOMOR01_clean'
_cell_length_a 8.852
_cell_length_b 11.686
_cell_length_c 17.847
_cell_angle_alpha 90
_cell_angle_beta 90
_cell_angle_gamma 99.67
_space_group_name_H-M_alt 'P 1'
_space_group_name_Hall 'P 1'
loop_
    _symmetry_equiv_pos_as_xyz
    x,y,z
loop_
    _atom_site_label
    _atom_site_type_symbol
    _atom_site_fract_x
    _atom_site_fract_y
    _atom_site_fract_z
    _atom_site_occupancy
    Mn1      Mn       0.79412    0.38127    0.17015    1.000
    Mn2      Mn       0.70588    0.61873    0.67015    1.000
    Mn3      Mn       0.20588    0.61873    0.82985    1.000
    Mn4      Mn       0.29412    0.38127    0.32985    1.000
    H1       H        0.98090    0.18700    0.23570    1.000
    H2       H        0.98370    0.99270    0.23710    1.000
    H3       H        0.61610    0.94840    0.10620    1.000
    H4       H        0.62380    0.14410    0.10820    1.000
    H5       H        0.95100    0.61520    0.24690    1.000
    H6       H        0.95830    0.81080    0.25020    1.000
    H7       H        0.63580    0.77470    0.09170    1.000
    H8       H        0.63790    0.57890    0.09310    1.000
    H9       H        0.71900    0.38620    0.88170    1.000
    H10      H        0.88570    0.40140    0.91440    1.000
    H11      H        0.88380    0.59190    0.94390    1.000
    H12      H        0.70710    0.57880    0.92840    1.000
    H13      H        0.51910    0.81300    0.73570    1.000
    H14      H        0.51630    0.00730    0.73710    1.000
    H15      H        0.88390    0.05160    0.60620    1.000
    H16      H        0.87620    0.85590    0.60820    1.000
    H17      H        0.54900    0.38480    0.74690    1.000
    H18      H        0.54170    0.18920    0.75020    1.000
    H19      H        0.86420    0.22530    0.59170    1.000
    H20      H        0.86210    0.42110    0.59310    1.000
    H21      H        0.78100    0.61380    0.38170    1.000
    H22      H        0.61430    0.59860    0.41440    1.000
    H23      H        0.61620    0.40810    0.44390    1.000
    H24      H        0.79290    0.42120    0.42840    1.000
    H25      H        0.01910    0.81300    0.76430    1.000
    H26      H        0.01630    0.00730    0.76290    1.000
    H27      H        0.38390    0.05160    0.89380    1.000
    H28      H        0.37620    0.85590    0.89180    1.000
    H29      H        0.04900    0.38480    0.75310    1.000
    H30      H        0.04170    0.18920    0.74980    1.000
    H31      H        0.36420    0.22530    0.90830    1.000
    H32      H        0.36210    0.42110    0.90690    1.000
    H33      H        0.28100    0.61380    0.11830    1.000
    H34      H        0.11430    0.59860    0.08560    1.000
    H35      H        0.11620    0.40810    0.05610    1.000
    H36      H        0.29290    0.42120    0.07160    1.000
    H37      H        0.48090    0.18700    0.26430    1.000
    H38      H        0.48370    0.99270    0.26290    1.000
    H39      H        0.11610    0.94840    0.39380    1.000
    H40      H        0.12380    0.14410    0.39180    1.000
    H41      H        0.45100    0.61520    0.25310    1.000
    H42      H        0.45830    0.81080    0.24980    1.000
    H43      H        0.13580    0.77470    0.40830    1.000
    H44      H        0.13790    0.57890    0.40690    1.000
    H45      H        0.21900    0.38620    0.61830    1.000
    H46      H        0.38570    0.40140    0.58560    1.000
    H47      H        0.38380    0.59190    0.55610    1.000
    H48      H        0.20710    0.57880    0.57160    1.000
    C1       C        0.90550    0.13840    0.20920    1.000
    C2       C        0.90790    0.02110    0.21030    1.000
    C3       C        0.79960    0.94570    0.17216    1.000
    C4       C        0.69230    0.99510    0.13340    1.000
    C5       C        0.69770    0.11330    0.13500    1.000
    C6       C        0.88660    0.64770    0.21510    1.000
    C7       C        0.89140    0.76580    0.21740    1.000
    C8       C        0.79710    0.81810    0.17115    1.000
    C9       C        0.70150    0.74460    0.12410    1.000
    C10      C        0.70350    0.62650    0.12510    1.000
    C11      C        0.72120    0.38270    0.99707    1.000
    C12      C        0.78590    0.42390    0.92070    1.000
    C13      C        0.80110    0.55400    0.91228    1.000
    C14      C        0.83360    0.58900    0.83167    1.000
    C15      C        0.59450    0.86160    0.70920    1.000
    C16      C        0.59210    0.97890    0.71030    1.000
    C17      C        0.70040    0.05430    0.67216    1.000
    C18      C        0.80770    0.00490    0.63340    1.000
    C19      C        0.80230    0.88670    0.63500    1.000
    C20      C        0.61340    0.35230    0.71510    1.000
    C21      C        0.60860    0.23420    0.71740    1.000
    C22      C        0.70290    0.18190    0.67115    1.000
    C23      C        0.79850    0.25540    0.62410    1.000
    C24      C        0.79650    0.37350    0.62510    1.000
    C25      C        0.77880    0.61730    0.49707    1.000
    C26      C        0.71410    0.57610    0.42070    1.000
    C27      C        0.69890    0.44600    0.41228    1.000
    C28      C        0.66640    0.41100    0.33167    1.000
    C29      C        0.09450    0.86160    0.79080    1.000
    C30      C        0.09210    0.97890    0.78970    1.000
    C31      C        0.20040    0.05430    0.82784    1.000
    C32      C        0.30770    0.00490    0.86660    1.000
    C33      C        0.30230    0.88670    0.86500    1.000
    C34      C        0.11340    0.35230    0.78490    1.000
    C35      C        0.10860    0.23420    0.78260    1.000
    C36      C        0.20290    0.18190    0.82885    1.000
    C37      C        0.29850    0.25540    0.87590    1.000
    C38      C        0.29650    0.37350    0.87490    1.000
    C39      C        0.27880    0.61730    0.00293    1.000
    C40      C        0.21410    0.57610    0.07930    1.000
    C41      C        0.19890    0.44600    0.08772    1.000
    C42      C        0.16640    0.41100    0.16833    1.000
    C43      C        0.40550    0.13840    0.29080    1.000
    C44      C        0.40790    0.02110    0.28970    1.000
    C45      C        0.29960    0.94570    0.32784    1.000
    C46      C        0.19230    0.99510    0.36660    1.000
    C47      C        0.19770    0.11330    0.36500    1.000
    C48      C        0.38660    0.64770    0.28490    1.000
    C49      C        0.39140    0.76580    0.28260    1.000
    C50      C        0.29710    0.81810    0.32885    1.000
    C51      C        0.20150    0.74460    0.37590    1.000
    C52      C        0.20350    0.62650    0.37490    1.000
    C53      C        0.22120    0.38270    0.50293    1.000
    C54      C        0.28590    0.42390    0.57930    1.000
    C55      C        0.30110    0.55400    0.58772    1.000
    C56      C        0.33360    0.58900    0.66833    1.000
    N1       N        0.80170    0.18590    0.17237    1.000
    N2       N        0.79480    0.57780    0.16987    1.000
    N3       N        0.69830    0.81410    0.67237    1.000
    N4       N        0.70520    0.42220    0.66987    1.000
    N5       N        0.19830    0.81410    0.82763    1.000
    N6       N        0.20520    0.42220    0.83013    1.000
    N7       N        0.30170    0.18590    0.32763    1.000
    N8       N        0.29480    0.57780    0.33013    1.000
    O1       O        0.81620    0.38580    0.04956    1.000
    O2       O        0.58170    0.35090    0.00255    1.000
    O3       O        0.72570    0.61210    0.79231    1.000
    O4       O        0.96540    0.58800    0.80634    1.000
    O5       O        0.68380    0.61420    0.54956    1.000
    O6       O        0.91830    0.64910    0.50255    1.000
    O7       O        0.77430    0.38790    0.29231    1.000
    O8       O        0.53460    0.41200    0.30634    1.000
    O9       O        0.18380    0.61420    0.95044    1.000
    O10      O        0.41830    0.64910    0.99745    1.000
    O11      O        0.27430    0.38790    0.20769    1.000
    O12      O        0.03460    0.41200    0.19366    1.000
    O13      O        0.31620    0.38580    0.45044    1.000
    O14      O        0.08170    0.35090    0.49745    1.000
    O15      O        0.22570    0.61210    0.70769    1.000
    O16      O        0.46540    0.58800    0.69366    1.000
