# CIF file generated by openbabel 3.1.0, see https://openbabel.org
data_I
_chemical_name_common 'image0'
_cell_length_a 22.0248
_cell_length_b 16.4933
_cell_length_c 25.6766
_cell_angle_alpha 90
_cell_angle_beta 115.385
_cell_angle_gamma 90
_space_group_name_H-M_alt 'P 1'
_space_group_name_Hall 'P 1'
loop_
    _symmetry_equiv_pos_as_xyz
    x,y,z
loop_
    _atom_site_label
    _atom_site_type_symbol
    _atom_site_fract_x
    _atom_site_fract_y
    _atom_site_fract_z
    _atom_site_occupancy
    Ag1      Ag       0.27396    0.70871    0.86825    1.000
    Ag2      Ag       0.79472    0.00057    0.36770    1.000
    C1       C        0.62799    0.06220    0.91131    1.000
    H1       H        0.58530    0.04080    0.89000    1.000
    C2       C        0.42269    0.40000    0.39269    1.000
    H2       H        0.40300    0.40430    0.35270    1.000
    C3       C        0.65417    0.21910    0.50159    1.000
    C4       C        0.62828    0.00720    0.00273    1.000
    C5       C        0.48185    0.38690    0.50967    1.000
    H3       H        0.50110    0.38390    0.54970    1.000
    C6       C        0.40318    0.81640    0.88927    1.000
    H4       H        0.38510    0.81050    0.84940    1.000
    C7       C        0.74352    0.13320    0.49657    1.000
    H5       H        0.76410    0.13270    0.53670    1.000
    C8       C        0.57522    0.30100    0.50741    1.000
    C9       C        0.72338    0.08670    0.00010    1.000
    H6       H        0.74590    0.08250    0.04000    1.000
    C10      C        0.77208    0.09230    0.46552    1.000
    H7       H        0.81230    0.06480    0.48570    1.000
    C11      C        0.62797    0.97670    0.08817    1.000
    C12      C        0.66035    0.05240    0.97060    1.000
    C13      C        0.46102    0.86120    0.91594    1.000
    H8       H        0.48130    0.88420    0.89430    1.000
    C14      C        0.75200    0.12690    0.96949    1.000
    H9       H        0.79440    0.14940    0.98970    1.000
    C15      C        0.68396    0.17500    0.46714    1.000
    C16      C        0.65826    0.98660    0.15177    1.000
    C17      C        0.45707    0.83410    0.00551    1.000
    H10      H        0.47460    0.83810    0.04540    1.000
    C18      C        0.77980    0.19860    0.74071    1.000
    H11      H        0.82190    0.17460    0.75980    1.000
    C19      C        0.71230    0.03840    0.17844    1.000
    H12      H        0.72850    0.06890    0.15670    1.000
    C20      C        0.48227    0.35780    0.41911    1.000
    H13      H        0.50200    0.33480    0.39700    1.000
    C21      C        0.69074    0.24270    0.65224    1.000
    C22      C        0.66105    0.10470    0.88475    1.000
    H14      H        0.63890    0.11210    0.84510    1.000
    C23      C        0.54988    0.92270    0.00579    1.000
    C24      C        0.75340    0.20740    0.68172    1.000
    H15      H        0.77750    0.18980    0.66170    1.000
    C25      C        0.65660    0.26810    0.68412    1.000
    H16      H        0.61440    0.29210    0.66610    1.000
    C26      C        0.68680    0.25710    0.74319    1.000
    H17      H        0.66370    0.27420    0.76410    1.000
    C27      C        0.74170    0.04390    0.23765    1.000
    H18      H        0.77750    0.07950    0.25510    1.000
    C28      C        0.39890    0.79060    0.97492    1.000
    H19      H        0.37760    0.76660    0.99540    1.000
    C29      C        0.51252    0.34990    0.47817    1.000
    C30      C        0.65874    0.25240    0.58861    1.000
    C31      C        0.65560    0.17460    0.40785    1.000
    H20      H        0.61620    0.20310    0.38680    1.000
    C32      C        0.63350    0.94450    0.18542    1.000
    H21      H        0.59570    0.91170    0.16880    1.000
    C33      C        0.42210    0.42830    0.47993    1.000
    H22      H        0.40190    0.45280    0.50110    1.000
    C34      C        0.48923    0.87200    0.97531    1.000
    C35      C        0.66720    0.95330    0.24440    1.000
    H23      H        0.65110    0.92420    0.26690    1.000
    C36      C        0.68670    0.13110    0.38010    1.000
    H24      H        0.66650    0.12990    0.34000    1.000
    N1       N        0.37125    0.78079    0.91762    1.000
    N2       N        0.72237    0.13560    0.91218    1.000
    N3       N        0.72120    0.00020    0.27180    1.000
    N4       N        0.57468    0.96100    0.97300    1.000
    N5       N        0.65627    0.01850    0.05984    1.000
    N6       N        0.57488    0.92750    0.06315    1.000
    N7       N        0.74471    0.09020    0.40804    1.000
    N8       N        0.74701    0.22330    0.77197    1.000
    N9       N        0.39173    0.43520    0.42212    1.000
    N10      N        0.59751    0.26020    0.47349    1.000
    N11      N        0.68699    0.21260    0.55933    1.000
    N12      N        0.60405    0.29930    0.56481    1.000
    Ag3      Ag       0.77396    0.20871    0.86825    1.000
    Ag4      Ag       0.29472    0.50057    0.36770    1.000
    C37      C        0.12799    0.56220    0.91131    1.000
    H25      H        0.08530    0.54080    0.89000    1.000
    C38      C        0.92269    0.90000    0.39269    1.000
    H26      H        0.90300    0.90430    0.35270    1.000
    C39      C        0.15417    0.71910    0.50159    1.000
    C40      C        0.12828    0.50720    0.00273    1.000
    C41      C        0.98185    0.88690    0.50967    1.000
    H27      H        0.00110    0.88390    0.54970    1.000
    C42      C        0.90318    0.31640    0.88927    1.000
    H28      H        0.88510    0.31050    0.84940    1.000
    C43      C        0.24352    0.63320    0.49657    1.000
    H29      H        0.26410    0.63270    0.53670    1.000
    C44      C        0.07522    0.80100    0.50741    1.000
    C45      C        0.22338    0.58670    0.00010    1.000
    H30      H        0.24590    0.58250    0.04000    1.000
    C46      C        0.27208    0.59230    0.46552    1.000
    H31      H        0.31230    0.56480    0.48570    1.000
    C47      C        0.12797    0.47670    0.08817    1.000
    C48      C        0.16035    0.55240    0.97060    1.000
    C49      C        0.96102    0.36120    0.91594    1.000
    H32      H        0.98130    0.38420    0.89430    1.000
    C50      C        0.25200    0.62690    0.96949    1.000
    H33      H        0.29440    0.64940    0.98970    1.000
    C51      C        0.18396    0.67500    0.46714    1.000
    C52      C        0.15826    0.48660    0.15177    1.000
    C53      C        0.95707    0.33410    0.00551    1.000
    H34      H        0.97460    0.33810    0.04540    1.000
    C54      C        0.27980    0.69860    0.74071    1.000
    H35      H        0.32190    0.67460    0.75980    1.000
    C55      C        0.21230    0.53840    0.17844    1.000
    H36      H        0.22850    0.56890    0.15670    1.000
    C56      C        0.98227    0.85780    0.41911    1.000
    H37      H        0.00200    0.83480    0.39700    1.000
    C57      C        0.19074    0.74270    0.65224    1.000
    C58      C        0.16105    0.60470    0.88475    1.000
    H38      H        0.13890    0.61210    0.84510    1.000
    C59      C        0.04988    0.42270    0.00579    1.000
    C60      C        0.25340    0.70740    0.68172    1.000
    H39      H        0.27750    0.68980    0.66170    1.000
    C61      C        0.15660    0.76810    0.68412    1.000
    H40      H        0.11440    0.79210    0.66610    1.000
    C62      C        0.18680    0.75710    0.74319    1.000
    H41      H        0.16370    0.77420    0.76410    1.000
    C63      C        0.24170    0.54390    0.23765    1.000
    H42      H        0.27750    0.57950    0.25510    1.000
    C64      C        0.89890    0.29060    0.97492    1.000
    H43      H        0.87760    0.26660    0.99540    1.000
    C65      C        0.01252    0.84990    0.47817    1.000
    C66      C        0.15874    0.75240    0.58861    1.000
    C67      C        0.15560    0.67460    0.40785    1.000
    H44      H        0.11620    0.70310    0.38680    1.000
    C68      C        0.13350    0.44450    0.18542    1.000
    H45      H        0.09570    0.41170    0.16880    1.000
    C69      C        0.92210    0.92830    0.47993    1.000
    H46      H        0.90190    0.95280    0.50110    1.000
    C70      C        0.98923    0.37200    0.97531    1.000
    C71      C        0.16720    0.45330    0.24440    1.000
    H47      H        0.15110    0.42420    0.26690    1.000
    C72      C        0.18670    0.63110    0.38010    1.000
    H48      H        0.16650    0.62990    0.34000    1.000
    N13      N        0.87125    0.28079    0.91762    1.000
    N14      N        0.22237    0.63560    0.91218    1.000
    N15      N        0.22120    0.50020    0.27180    1.000
    N16      N        0.07468    0.46100    0.97300    1.000
    N17      N        0.15627    0.51850    0.05984    1.000
    N18      N        0.07488    0.42750    0.06315    1.000
    N19      N        0.24471    0.59020    0.40804    1.000
    N20      N        0.24701    0.72330    0.77197    1.000
    N21      N        0.89173    0.93520    0.42212    1.000
    N22      N        0.09751    0.76020    0.47349    1.000
    N23      N        0.18699    0.71260    0.55933    1.000
    N24      N        0.10405    0.79930    0.56481    1.000
    Ag5      Ag       0.72604    0.70871    0.63175    1.000
    Ag6      Ag       0.20528    0.00057    0.13230    1.000
    C73      C        0.37201    0.06220    0.58869    1.000
    H49      H        0.41470    0.04080    0.61000    1.000
    C74      C        0.57731    0.40000    0.10731    1.000
    H50      H        0.59700    0.40430    0.14730    1.000
    C75      C        0.34583    0.21910    0.99841    1.000
    C76      C        0.37172    0.00720    0.49727    1.000
    C77      C        0.51815    0.38690    0.99033    1.000
    H51      H        0.49890    0.38390    0.95030    1.000
    C78      C        0.59682    0.81640    0.61073    1.000
    H52      H        0.61490    0.81050    0.65060    1.000
    C79      C        0.25648    0.13320    0.00343    1.000
    H53      H        0.23590    0.13270    0.96330    1.000
    C80      C        0.42478    0.30100    0.99259    1.000
    C81      C        0.27662    0.08670    0.49990    1.000
    H54      H        0.25410    0.08250    0.46000    1.000
    C82      C        0.22792    0.09230    0.03448    1.000
    H55      H        0.18770    0.06480    0.01430    1.000
    C83      C        0.37203    0.97670    0.41183    1.000
    C84      C        0.33965    0.05240    0.52940    1.000
    C85      C        0.53898    0.86120    0.58406    1.000
    H56      H        0.51870    0.88420    0.60570    1.000
    C86      C        0.24800    0.12690    0.53051    1.000
    H57      H        0.20560    0.14940    0.51030    1.000
    C87      C        0.31604    0.17500    0.03286    1.000
    C88      C        0.34174    0.98660    0.34823    1.000
    C89      C        0.54293    0.83410    0.49449    1.000
    H58      H        0.52540    0.83810    0.45460    1.000
    C90      C        0.22020    0.19860    0.75929    1.000
    H59      H        0.17810    0.17460    0.74020    1.000
    C91      C        0.28770    0.03840    0.32156    1.000
    H60      H        0.27150    0.06890    0.34330    1.000
    C92      C        0.51773    0.35780    0.08089    1.000
    H61      H        0.49800    0.33480    0.10300    1.000
    C93      C        0.30926    0.24270    0.84776    1.000
    C94      C        0.33895    0.10470    0.61525    1.000
    H62      H        0.36110    0.11210    0.65490    1.000
    C95      C        0.45012    0.92270    0.49421    1.000
    C96      C        0.24660    0.20740    0.81828    1.000
    H63      H        0.22250    0.18980    0.83830    1.000
    C97      C        0.34340    0.26810    0.81588    1.000
    H64      H        0.38560    0.29210    0.83390    1.000
    C98      C        0.31320    0.25710    0.75681    1.000
    H65      H        0.33630    0.27420    0.73590    1.000
    C99      C        0.25830    0.04390    0.26235    1.000
    H66      H        0.22250    0.07950    0.24490    1.000
    C100     C        0.60110    0.79060    0.52508    1.000
    H67      H        0.62240    0.76660    0.50460    1.000
    C101     C        0.48748    0.34990    0.02183    1.000
    C102     C        0.34126    0.25240    0.91139    1.000
    C103     C        0.34440    0.17460    0.09215    1.000
    H68      H        0.38380    0.20310    0.11320    1.000
    C104     C        0.36650    0.94450    0.31458    1.000
    H69      H        0.40430    0.91170    0.33120    1.000
    C105     C        0.57790    0.42830    0.02007    1.000
    H70      H        0.59810    0.45280    0.99890    1.000
    C106     C        0.51077    0.87200    0.52469    1.000
    C107     C        0.33280    0.95330    0.25560    1.000
    H71      H        0.34890    0.92420    0.23310    1.000
    C108     C        0.31330    0.13110    0.11990    1.000
    H72      H        0.33350    0.12990    0.16000    1.000
    N25      N        0.62875    0.78079    0.58238    1.000
    N26      N        0.27763    0.13560    0.58782    1.000
    N27      N        0.27880    0.00020    0.22820    1.000
    N28      N        0.42532    0.96100    0.52700    1.000
    N29      N        0.34373    0.01850    0.44016    1.000
    N30      N        0.42512    0.92750    0.43685    1.000
    N31      N        0.25529    0.09020    0.09196    1.000
    N32      N        0.25299    0.22330    0.72803    1.000
    N33      N        0.60827    0.43520    0.07788    1.000
    N34      N        0.40249    0.26020    0.02651    1.000
    N35      N        0.31301    0.21260    0.94067    1.000
    N36      N        0.39595    0.29930    0.93519    1.000
    Ag7      Ag       0.22604    0.20871    0.63175    1.000
    Ag8      Ag       0.70528    0.50057    0.13230    1.000
    C109     C        0.87201    0.56220    0.58869    1.000
    H73      H        0.91470    0.54080    0.61000    1.000
    C110     C        0.07731    0.90000    0.10731    1.000
    H74      H        0.09700    0.90430    0.14730    1.000
    C111     C        0.84583    0.71910    0.99841    1.000
    C112     C        0.87172    0.50720    0.49727    1.000
    C113     C        0.01815    0.88690    0.99033    1.000
    H75      H        0.99890    0.88390    0.95030    1.000
    C114     C        0.09682    0.31640    0.61073    1.000
    H76      H        0.11490    0.31050    0.65060    1.000
    C115     C        0.75648    0.63320    0.00343    1.000
    H77      H        0.73590    0.63270    0.96330    1.000
    C116     C        0.92478    0.80100    0.99259    1.000
    C117     C        0.77662    0.58670    0.49990    1.000
    H78      H        0.75410    0.58250    0.46000    1.000
    C118     C        0.72792    0.59230    0.03448    1.000
    H79      H        0.68770    0.56480    0.01430    1.000
    C119     C        0.87203    0.47670    0.41183    1.000
    C120     C        0.83965    0.55240    0.52940    1.000
    C121     C        0.03898    0.36120    0.58406    1.000
    H80      H        0.01870    0.38420    0.60570    1.000
    C122     C        0.74800    0.62690    0.53051    1.000
    H81      H        0.70560    0.64940    0.51030    1.000
    C123     C        0.81604    0.67500    0.03286    1.000
    C124     C        0.84174    0.48660    0.34823    1.000
    C125     C        0.04293    0.33410    0.49449    1.000
    H82      H        0.02540    0.33810    0.45460    1.000
    C126     C        0.72020    0.69860    0.75929    1.000
    H83      H        0.67810    0.67460    0.74020    1.000
    C127     C        0.78770    0.53840    0.32156    1.000
    H84      H        0.77150    0.56890    0.34330    1.000
    C128     C        0.01773    0.85780    0.08089    1.000
    H85      H        0.99800    0.83480    0.10300    1.000
    C129     C        0.80926    0.74270    0.84776    1.000
    C130     C        0.83895    0.60470    0.61525    1.000
    H86      H        0.86110    0.61210    0.65490    1.000
    C131     C        0.95012    0.42270    0.49421    1.000
    C132     C        0.74660    0.70740    0.81828    1.000
    H87      H        0.72250    0.68980    0.83830    1.000
    C133     C        0.84340    0.76810    0.81588    1.000
    H88      H        0.88560    0.79210    0.83390    1.000
    C134     C        0.81320    0.75710    0.75681    1.000
    H89      H        0.83630    0.77420    0.73590    1.000
    C135     C        0.75830    0.54390    0.26235    1.000
    H90      H        0.72250    0.57950    0.24490    1.000
    C136     C        0.10110    0.29060    0.52508    1.000
    H91      H        0.12240    0.26660    0.50460    1.000
    C137     C        0.98748    0.84990    0.02183    1.000
    C138     C        0.84126    0.75240    0.91139    1.000
    C139     C        0.84440    0.67460    0.09215    1.000
    H92      H        0.88380    0.70310    0.11320    1.000
    C140     C        0.86650    0.44450    0.31458    1.000
    H93      H        0.90430    0.41170    0.33120    1.000
    C141     C        0.07790    0.92830    0.02007    1.000
    H94      H        0.09810    0.95280    0.99890    1.000
    C142     C        0.01077    0.37200    0.52469    1.000
    C143     C        0.83280    0.45330    0.25560    1.000
    H95      H        0.84890    0.42420    0.23310    1.000
    C144     C        0.81330    0.63110    0.11990    1.000
    H96      H        0.83350    0.62990    0.16000    1.000
    N37      N        0.12875    0.28079    0.58238    1.000
    N38      N        0.77763    0.63560    0.58782    1.000
    N39      N        0.77880    0.50020    0.22820    1.000
    N40      N        0.92532    0.46100    0.52700    1.000
    N41      N        0.84373    0.51850    0.44016    1.000
    N42      N        0.92512    0.42750    0.43685    1.000
    N43      N        0.75529    0.59020    0.09196    1.000
    N44      N        0.75299    0.72330    0.72803    1.000
    N45      N        0.10827    0.93520    0.07788    1.000
    N46      N        0.90249    0.76020    0.02651    1.000
    N47      N        0.81301    0.71260    0.94067    1.000
    N48      N        0.89595    0.79930    0.93519    1.000
    Ag9      Ag       0.72604    0.29129    0.13175    1.000
    Ag10     Ag       0.20528    0.99943    0.63230    1.000
    C145     C        0.37201    0.93780    0.08869    1.000
    H97      H        0.41470    0.95920    0.11000    1.000
    C146     C        0.57731    0.60000    0.60731    1.000
    H98      H        0.59700    0.59570    0.64730    1.000
    C147     C        0.34583    0.78090    0.49841    1.000
    C148     C        0.37172    0.99280    0.99727    1.000
    C149     C        0.51815    0.61310    0.49033    1.000
    H99      H        0.49890    0.61610    0.45030    1.000
    C150     C        0.59682    0.18360    0.11073    1.000
    H100     H        0.61490    0.18950    0.15060    1.000
    C151     C        0.25648    0.86680    0.50343    1.000
    H101     H        0.23590    0.86730    0.46330    1.000
    C152     C        0.42478    0.69900    0.49259    1.000
    C153     C        0.27662    0.91330    0.99990    1.000
    H102     H        0.25410    0.91750    0.96000    1.000
    C154     C        0.22792    0.90770    0.53448    1.000
    H103     H        0.18770    0.93520    0.51430    1.000
    C155     C        0.37203    0.02330    0.91183    1.000
    C156     C        0.33965    0.94760    0.02940    1.000
    C157     C        0.53898    0.13880    0.08406    1.000
    H104     H        0.51870    0.11580    0.10570    1.000
    C158     C        0.24800    0.87310    0.03051    1.000
    H105     H        0.20560    0.85060    0.01030    1.000
    C159     C        0.31604    0.82500    0.53286    1.000
    C160     C        0.34174    0.01340    0.84823    1.000
    C161     C        0.54293    0.16590    0.99449    1.000
    H106     H        0.52540    0.16190    0.95460    1.000
    C162     C        0.22020    0.80140    0.25929    1.000
    H107     H        0.17810    0.82540    0.24020    1.000
    C163     C        0.28770    0.96160    0.82156    1.000
    H108     H        0.27150    0.93110    0.84330    1.000
    C164     C        0.51773    0.64220    0.58089    1.000
    H109     H        0.49800    0.66520    0.60300    1.000
    C165     C        0.30926    0.75730    0.34776    1.000
    C166     C        0.33895    0.89530    0.11525    1.000
    H110     H        0.36110    0.88790    0.15490    1.000
    C167     C        0.45012    0.07730    0.99421    1.000
    C168     C        0.24660    0.79260    0.31828    1.000
    H111     H        0.22250    0.81020    0.33830    1.000
    C169     C        0.34340    0.73190    0.31588    1.000
    H112     H        0.38560    0.70790    0.33390    1.000
    C170     C        0.31320    0.74290    0.25681    1.000
    H113     H        0.33630    0.72580    0.23590    1.000
    C171     C        0.25830    0.95610    0.76235    1.000
    H114     H        0.22250    0.92050    0.74490    1.000
    C172     C        0.60110    0.20940    0.02508    1.000
    H115     H        0.62240    0.23340    0.00460    1.000
    C173     C        0.48748    0.65010    0.52183    1.000
    C174     C        0.34126    0.74760    0.41139    1.000
    C175     C        0.34440    0.82540    0.59215    1.000
    H116     H        0.38380    0.79690    0.61320    1.000
    C176     C        0.36650    0.05550    0.81458    1.000
    H117     H        0.40430    0.08830    0.83120    1.000
    C177     C        0.57790    0.57170    0.52007    1.000
    H118     H        0.59810    0.54720    0.49890    1.000
    C178     C        0.51077    0.12800    0.02469    1.000
    C179     C        0.33280    0.04670    0.75560    1.000
    H119     H        0.34890    0.07580    0.73310    1.000
    C180     C        0.31330    0.86890    0.61990    1.000
    H120     H        0.33350    0.87010    0.66000    1.000
    N49      N        0.62875    0.21921    0.08238    1.000
    N50      N        0.27763    0.86440    0.08782    1.000
    N51      N        0.27880    0.99980    0.72820    1.000
    N52      N        0.42532    0.03900    0.02700    1.000
    N53      N        0.34373    0.98150    0.94016    1.000
    N54      N        0.42512    0.07250    0.93685    1.000
    N55      N        0.25529    0.90980    0.59196    1.000
    N56      N        0.25299    0.77670    0.22803    1.000
    N57      N        0.60827    0.56480    0.57788    1.000
    N58      N        0.40249    0.73980    0.52651    1.000
    N59      N        0.31301    0.78740    0.44067    1.000
    N60      N        0.39595    0.70070    0.43519    1.000
    Ag11     Ag       0.22604    0.79129    0.13175    1.000
    Ag12     Ag       0.70528    0.49943    0.63230    1.000
    C181     C        0.87201    0.43780    0.08869    1.000
    H121     H        0.91470    0.45920    0.11000    1.000
    C182     C        0.07731    0.10000    0.60731    1.000
    H122     H        0.09700    0.09570    0.64730    1.000
    C183     C        0.84583    0.28090    0.49841    1.000
    C184     C        0.87172    0.49280    0.99727    1.000
    C185     C        0.01815    0.11310    0.49033    1.000
    H123     H        0.99890    0.11610    0.45030    1.000
    C186     C        0.09682    0.68360    0.11073    1.000
    H124     H        0.11490    0.68950    0.15060    1.000
    C187     C        0.75648    0.36680    0.50343    1.000
    H125     H        0.73590    0.36730    0.46330    1.000
    C188     C        0.92478    0.19900    0.49259    1.000
    C189     C        0.77662    0.41330    0.99990    1.000
    H126     H        0.75410    0.41750    0.96000    1.000
    C190     C        0.72792    0.40770    0.53448    1.000
    H127     H        0.68770    0.43520    0.51430    1.000
    C191     C        0.87203    0.52330    0.91183    1.000
    C192     C        0.83965    0.44760    0.02940    1.000
    C193     C        0.03898    0.63880    0.08406    1.000
    H128     H        0.01870    0.61580    0.10570    1.000
    C194     C        0.74800    0.37310    0.03051    1.000
    H129     H        0.70560    0.35060    0.01030    1.000
    C195     C        0.81604    0.32500    0.53286    1.000
    C196     C        0.84174    0.51340    0.84823    1.000
    C197     C        0.04293    0.66590    0.99449    1.000
    H130     H        0.02540    0.66190    0.95460    1.000
    C198     C        0.72020    0.30140    0.25929    1.000
    H131     H        0.67810    0.32540    0.24020    1.000
    C199     C        0.78770    0.46160    0.82156    1.000
    H132     H        0.77150    0.43110    0.84330    1.000
    C200     C        0.01773    0.14220    0.58089    1.000
    H133     H        0.99800    0.16520    0.60300    1.000
    C201     C        0.80926    0.25730    0.34776    1.000
    C202     C        0.83895    0.39530    0.11525    1.000
    H134     H        0.86110    0.38790    0.15490    1.000
    C203     C        0.95012    0.57730    0.99421    1.000
    C204     C        0.74660    0.29260    0.31828    1.000
    H135     H        0.72250    0.31020    0.33830    1.000
    C205     C        0.84340    0.23190    0.31588    1.000
    H136     H        0.88560    0.20790    0.33390    1.000
    C206     C        0.81320    0.24290    0.25681    1.000
    H137     H        0.83630    0.22580    0.23590    1.000
    C207     C        0.75830    0.45610    0.76235    1.000
    H138     H        0.72250    0.42050    0.74490    1.000
    C208     C        0.10110    0.70940    0.02508    1.000
    H139     H        0.12240    0.73340    0.00460    1.000
    C209     C        0.98748    0.15010    0.52183    1.000
    C210     C        0.84126    0.24760    0.41139    1.000
    C211     C        0.84440    0.32540    0.59215    1.000
    H140     H        0.88380    0.29690    0.61320    1.000
    C212     C        0.86650    0.55550    0.81458    1.000
    H141     H        0.90430    0.58830    0.83120    1.000
    C213     C        0.07790    0.07170    0.52007    1.000
    H142     H        0.09810    0.04720    0.49890    1.000
    C214     C        0.01077    0.62800    0.02469    1.000
    C215     C        0.83280    0.54670    0.75560    1.000
    H143     H        0.84890    0.57580    0.73310    1.000
    C216     C        0.81330    0.36890    0.61990    1.000
    H144     H        0.83350    0.37010    0.66000    1.000
    N61      N        0.12875    0.71921    0.08238    1.000
    N62      N        0.77763    0.36440    0.08782    1.000
    N63      N        0.77880    0.49980    0.72820    1.000
    N64      N        0.92532    0.53900    0.02700    1.000
    N65      N        0.84373    0.48150    0.94016    1.000
    N66      N        0.92512    0.57250    0.93685    1.000
    N67      N        0.75529    0.40980    0.59196    1.000
    N68      N        0.75299    0.27670    0.22803    1.000
    N69      N        0.10827    0.06480    0.57788    1.000
    N70      N        0.90249    0.23980    0.52651    1.000
    N71      N        0.81301    0.28740    0.44067    1.000
    N72      N        0.89595    0.20070    0.43519    1.000
    Ag13     Ag       0.27396    0.29129    0.36825    1.000
    Ag14     Ag       0.79472    0.99943    0.86770    1.000
    C217     C        0.62799    0.93780    0.41131    1.000
    H145     H        0.58530    0.95920    0.39000    1.000
    C218     C        0.42269    0.60000    0.89269    1.000
    H146     H        0.40300    0.59570    0.85270    1.000
    C219     C        0.65417    0.78090    0.00159    1.000
    C220     C        0.62828    0.99280    0.50273    1.000
    C221     C        0.48185    0.61310    0.00967    1.000
    H147     H        0.50110    0.61610    0.04970    1.000
    C222     C        0.40318    0.18360    0.38927    1.000
    H148     H        0.38510    0.18950    0.34940    1.000
    C223     C        0.74352    0.86680    0.99657    1.000
    H149     H        0.76410    0.86730    0.03670    1.000
    C224     C        0.57522    0.69900    0.00741    1.000
    C225     C        0.72338    0.91330    0.50010    1.000
    H150     H        0.74590    0.91750    0.54000    1.000
    C226     C        0.77208    0.90770    0.96552    1.000
    H151     H        0.81230    0.93520    0.98570    1.000
    C227     C        0.62797    0.02330    0.58817    1.000
    C228     C        0.66035    0.94760    0.47060    1.000
    C229     C        0.46102    0.13880    0.41594    1.000
    H152     H        0.48130    0.11580    0.39430    1.000
    C230     C        0.75200    0.87310    0.46949    1.000
    H153     H        0.79440    0.85060    0.48970    1.000
    C231     C        0.68396    0.82500    0.96714    1.000
    C232     C        0.65826    0.01340    0.65177    1.000
    C233     C        0.45707    0.16590    0.50551    1.000
    H154     H        0.47460    0.16190    0.54540    1.000
    C234     C        0.77980    0.80140    0.24071    1.000
    H155     H        0.82190    0.82540    0.25980    1.000
    C235     C        0.71230    0.96160    0.67844    1.000
    H156     H        0.72850    0.93110    0.65670    1.000
    C236     C        0.48227    0.64220    0.91911    1.000
    H157     H        0.50200    0.66520    0.89700    1.000
    C237     C        0.69074    0.75730    0.15224    1.000
    C238     C        0.66105    0.89530    0.38475    1.000
    H158     H        0.63890    0.88790    0.34510    1.000
    C239     C        0.54988    0.07730    0.50579    1.000
    C240     C        0.75340    0.79260    0.18172    1.000
    H159     H        0.77750    0.81020    0.16170    1.000
    C241     C        0.65660    0.73190    0.18412    1.000
    H160     H        0.61440    0.70790    0.16610    1.000
    C242     C        0.68680    0.74290    0.24319    1.000
    H161     H        0.66370    0.72580    0.26410    1.000
    C243     C        0.74170    0.95610    0.73765    1.000
    H162     H        0.77750    0.92050    0.75510    1.000
    C244     C        0.39890    0.20940    0.47492    1.000
    H163     H        0.37760    0.23340    0.49540    1.000
    C245     C        0.51252    0.65010    0.97817    1.000
    C246     C        0.65874    0.74760    0.08861    1.000
    C247     C        0.65560    0.82540    0.90785    1.000
    H164     H        0.61620    0.79690    0.88680    1.000
    C248     C        0.63350    0.05550    0.68542    1.000
    H165     H        0.59570    0.08830    0.66880    1.000
    C249     C        0.42210    0.57170    0.97993    1.000
    H166     H        0.40190    0.54720    0.00110    1.000
    C250     C        0.48923    0.12800    0.47531    1.000
    C251     C        0.66720    0.04670    0.74440    1.000
    H167     H        0.65110    0.07580    0.76690    1.000
    C252     C        0.68670    0.86890    0.88010    1.000
    H168     H        0.66650    0.87010    0.84000    1.000
    N73      N        0.37125    0.21921    0.41762    1.000
    N74      N        0.72237    0.86440    0.41218    1.000
    N75      N        0.72120    0.99980    0.77180    1.000
    N76      N        0.57468    0.03900    0.47300    1.000
    N77      N        0.65627    0.98150    0.55984    1.000
    N78      N        0.57488    0.07250    0.56315    1.000
    N79      N        0.74471    0.90980    0.90804    1.000
    N80      N        0.74701    0.77670    0.27197    1.000
    N81      N        0.39173    0.56480    0.92212    1.000
    N82      N        0.59751    0.73980    0.97349    1.000
    N83      N        0.68699    0.78740    0.05933    1.000
    N84      N        0.60405    0.70070    0.06481    1.000
    Ag15     Ag       0.77396    0.79129    0.36825    1.000
    Ag16     Ag       0.29472    0.49943    0.86770    1.000
    C253     C        0.12799    0.43780    0.41131    1.000
    H169     H        0.08530    0.45920    0.39000    1.000
    C254     C        0.92269    0.10000    0.89269    1.000
    H170     H        0.90300    0.09570    0.85270    1.000
    C255     C        0.15417    0.28090    0.00159    1.000
    C256     C        0.12828    0.49280    0.50273    1.000
    C257     C        0.98185    0.11310    0.00967    1.000
    H171     H        0.00110    0.11610    0.04970    1.000
    C258     C        0.90318    0.68360    0.38927    1.000
    H172     H        0.88510    0.68950    0.34940    1.000
    C259     C        0.24352    0.36680    0.99657    1.000
    H173     H        0.26410    0.36730    0.03670    1.000
    C260     C        0.07522    0.19900    0.00741    1.000
    C261     C        0.22338    0.41330    0.50010    1.000
    H174     H        0.24590    0.41750    0.54000    1.000
    C262     C        0.27208    0.40770    0.96552    1.000
    H175     H        0.31230    0.43520    0.98570    1.000
    C263     C        0.12797    0.52330    0.58817    1.000
    C264     C        0.16035    0.44760    0.47060    1.000
    C265     C        0.96102    0.63880    0.41594    1.000
    H176     H        0.98130    0.61580    0.39430    1.000
    C266     C        0.25200    0.37310    0.46949    1.000
    H177     H        0.29440    0.35060    0.48970    1.000
    C267     C        0.18396    0.32500    0.96714    1.000
    C268     C        0.15826    0.51340    0.65177    1.000
    C269     C        0.95707    0.66590    0.50551    1.000
    H178     H        0.97460    0.66190    0.54540    1.000
    C270     C        0.27980    0.30140    0.24071    1.000
    H179     H        0.32190    0.32540    0.25980    1.000
    C271     C        0.21230    0.46160    0.67844    1.000
    H180     H        0.22850    0.43110    0.65670    1.000
    C272     C        0.98227    0.14220    0.91911    1.000
    H181     H        0.00200    0.16520    0.89700    1.000
    C273     C        0.19074    0.25730    0.15224    1.000
    C274     C        0.16105    0.39530    0.38475    1.000
    H182     H        0.13890    0.38790    0.34510    1.000
    C275     C        0.04988    0.57730    0.50579    1.000
    C276     C        0.25340    0.29260    0.18172    1.000
    H183     H        0.27750    0.31020    0.16170    1.000
    C277     C        0.15660    0.23190    0.18412    1.000
    H184     H        0.11440    0.20790    0.16610    1.000
    C278     C        0.18680    0.24290    0.24319    1.000
    H185     H        0.16370    0.22580    0.26410    1.000
    C279     C        0.24170    0.45610    0.73765    1.000
    H186     H        0.27750    0.42050    0.75510    1.000
    C280     C        0.89890    0.70940    0.47492    1.000
    H187     H        0.87760    0.73340    0.49540    1.000
    C281     C        0.01252    0.15010    0.97817    1.000
    C282     C        0.15874    0.24760    0.08861    1.000
    C283     C        0.15560    0.32540    0.90785    1.000
    H188     H        0.11620    0.29690    0.88680    1.000
    C284     C        0.13350    0.55550    0.68542    1.000
    H189     H        0.09570    0.58830    0.66880    1.000
    C285     C        0.92210    0.07170    0.97993    1.000
    H190     H        0.90190    0.04720    0.00110    1.000
    C286     C        0.98923    0.62800    0.47531    1.000
    C287     C        0.16720    0.54670    0.74440    1.000
    H191     H        0.15110    0.57580    0.76690    1.000
    C288     C        0.18670    0.36890    0.88010    1.000
    H192     H        0.16650    0.37010    0.84000    1.000
    N85      N        0.87125    0.71921    0.41762    1.000
    N86      N        0.22237    0.36440    0.41218    1.000
    N87      N        0.22120    0.49980    0.77180    1.000
    N88      N        0.07468    0.53900    0.47300    1.000
    N89      N        0.15627    0.48150    0.55984    1.000
    N90      N        0.07488    0.57250    0.56315    1.000
    N91      N        0.24471    0.40980    0.90804    1.000
    N92      N        0.24701    0.27670    0.27197    1.000
    N93      N        0.89173    0.06480    0.92212    1.000
    N94      N        0.09751    0.23980    0.97349    1.000
    N95      N        0.18699    0.28740    0.05933    1.000
    N96      N        0.10405    0.20070    0.06481    1.000
