# CIF file generated by openbabel 3.1.0, see https://openbabel.org
data_I
_chemical_name_common 'DORFUM_clean'
_cell_length_a 12.2234
_cell_length_b 18.184
_cell_length_c 18.256
_cell_angle_alpha 103.438
_cell_angle_beta 90
_cell_angle_gamma 90
_space_group_name_H-M_alt 'P 1'
_space_group_name_Hall 'P 1'
loop_
    _symmetry_equiv_pos_as_xyz
    x,y,z
loop_
    _atom_site_label
    _atom_site_type_symbol
    _atom_site_fract_x
    _atom_site_fract_y
    _atom_site_fract_z
    _atom_site_occupancy
    K1       K        0.46728    0.70217    0.86013    1.000
    K2       K        0.94643    0.89868    0.47635    1.000
    K3       K        0.96728    0.29783    0.63987    1.000
    K4       K        0.44643    0.10132    0.02365    1.000
    K5       K        0.53272    0.29783    0.13987    1.000
    K6       K        0.05357    0.10132    0.52365    1.000
    K7       K        0.03272    0.70217    0.36013    1.000
    K8       K        0.55357    0.89868    0.97635    1.000
    Fe1      Fe       0.91637    0.73345    0.56467    1.000
    Fe2      Fe       0.41637    0.26655    0.93533    1.000
    Fe3      Fe       0.08363    0.26655    0.43533    1.000
    Fe4      Fe       0.58363    0.73345    0.06467    1.000
    H1       H        0.82150    0.76440    0.76360    1.000
    H2       H        0.08330    0.70160    0.72530    1.000
    H3       H        0.86470    0.58740    0.67230    1.000
    H4       H        0.96030    0.76450    0.86920    1.000
    H5       H        0.91890    0.71180    0.92230    1.000
    H6       H        0.73940    0.71630    0.87750    1.000
    H7       H        0.78360    0.80000    0.91250    1.000
    H8       H        0.52530    0.88790    0.73850    1.000
    H9       H        0.50830    0.92560    0.62700    1.000
    H10      H        0.63900    0.88920    0.53010    1.000
    H11      H        0.05800    0.58200    0.78640    1.000
    H12      H        0.04370    0.61400    0.87510    1.000
    H13      H        0.12470    0.72930    0.86660    1.000
    H14      H        0.20620    0.66030    0.83520    1.000
    H15      H        0.39620    0.77470    0.65260    1.000
    H16      H        0.39590    0.81210    0.53990    1.000
    H17      H        0.23400    0.81380    0.47220    1.000
    H18      H        0.77810    0.61860    0.80730    1.000
    H19      H        0.85270    0.58420    0.86310    1.000
    H20      H        0.93790    0.50290    0.75980    1.000
    H21      H        0.80840    0.48930    0.75730    1.000
    H22      H        0.84550    0.39140    0.48290    1.000
    H23      H        0.85670    0.41560    0.36230    1.000
    H24      H        0.88140    0.53670    0.34780    1.000
    H25      H        0.32150    0.23560    0.73640    1.000
    H26      H        0.58330    0.29840    0.77470    1.000
    H27      H        0.36470    0.41260    0.82770    1.000
    H28      H        0.46030    0.23550    0.63080    1.000
    H29      H        0.41890    0.28820    0.57770    1.000
    H30      H        0.23940    0.28370    0.62250    1.000
    H31      H        0.28360    0.20000    0.58750    1.000
    H32      H        0.02530    0.11210    0.76150    1.000
    H33      H        0.00830    0.07440    0.87300    1.000
    H34      H        0.13900    0.11080    0.96990    1.000
    H35      H        0.55800    0.41800    0.71360    1.000
    H36      H        0.54370    0.38600    0.62490    1.000
    H37      H        0.62470    0.27070    0.63340    1.000
    H38      H        0.70620    0.33970    0.66480    1.000
    H39      H        0.89620    0.22530    0.84740    1.000
    H40      H        0.89590    0.18790    0.96010    1.000
    H41      H        0.73400    0.18620    0.02780    1.000
    H42      H        0.27810    0.38140    0.69270    1.000
    H43      H        0.35270    0.41580    0.63690    1.000
    H44      H        0.43790    0.49710    0.74020    1.000
    H45      H        0.30840    0.51070    0.74270    1.000
    H46      H        0.34550    0.60860    0.01710    1.000
    H47      H        0.35670    0.58440    0.13770    1.000
    H48      H        0.38140    0.46330    0.15220    1.000
    H49      H        0.17850    0.23560    0.23640    1.000
    H50      H        0.91670    0.29840    0.27470    1.000
    H51      H        0.13530    0.41260    0.32770    1.000
    H52      H        0.03970    0.23550    0.13080    1.000
    H53      H        0.08110    0.28820    0.07770    1.000
    H54      H        0.26060    0.28370    0.12250    1.000
    H55      H        0.21640    0.20000    0.08750    1.000
    H56      H        0.47470    0.11210    0.26150    1.000
    H57      H        0.49170    0.07440    0.37300    1.000
    H58      H        0.36100    0.11080    0.46990    1.000
    H59      H        0.94200    0.41800    0.21360    1.000
    H60      H        0.95630    0.38600    0.12490    1.000
    H61      H        0.87530    0.27070    0.13340    1.000
    H62      H        0.79380    0.33970    0.16480    1.000
    H63      H        0.60380    0.22530    0.34740    1.000
    H64      H        0.60410    0.18790    0.46010    1.000
    H65      H        0.76600    0.18620    0.52780    1.000
    H66      H        0.22190    0.38140    0.19270    1.000
    H67      H        0.14730    0.41580    0.13690    1.000
    H68      H        0.06210    0.49710    0.24020    1.000
    H69      H        0.19160    0.51070    0.24270    1.000
    H70      H        0.15450    0.60860    0.51710    1.000
    H71      H        0.14330    0.58440    0.63770    1.000
    H72      H        0.11860    0.46330    0.65220    1.000
    H73      H        0.67850    0.76440    0.26360    1.000
    H74      H        0.41670    0.70160    0.22530    1.000
    H75      H        0.63530    0.58740    0.17230    1.000
    H76      H        0.53970    0.76450    0.36920    1.000
    H77      H        0.58110    0.71180    0.42230    1.000
    H78      H        0.76060    0.71630    0.37750    1.000
    H79      H        0.71640    0.80000    0.41250    1.000
    H80      H        0.97470    0.88790    0.23850    1.000
    H81      H        0.99170    0.92560    0.12700    1.000
    H82      H        0.86100    0.88920    0.03010    1.000
    H83      H        0.44200    0.58200    0.28640    1.000
    H84      H        0.45630    0.61400    0.37510    1.000
    H85      H        0.37530    0.72930    0.36660    1.000
    H86      H        0.29380    0.66030    0.33520    1.000
    H87      H        0.10380    0.77470    0.15260    1.000
    H88      H        0.10410    0.81210    0.03990    1.000
    H89      H        0.26600    0.81380    0.97220    1.000
    H90      H        0.72190    0.61860    0.30730    1.000
    H91      H        0.64730    0.58420    0.36310    1.000
    H92      H        0.56210    0.50290    0.25980    1.000
    H93      H        0.69160    0.48930    0.25730    1.000
    H94      H        0.65450    0.39140    0.98290    1.000
    H95      H        0.64330    0.41560    0.86230    1.000
    H96      H        0.61860    0.53670    0.84780    1.000
    C1       C        0.90780    0.72410    0.87270    1.000
    C2       C        0.79310    0.75490    0.87060    1.000
    C3       C        0.67920    0.81030    0.78720    1.000
    C4       C        0.67000    0.83120    0.71450    1.000
    C5       C        0.58000    0.87390    0.70090    1.000
    C6       C        0.56930    0.89570    0.63430    1.000
    C7       C        0.64760    0.87440    0.57640    1.000
    C8       C        0.73590    0.83230    0.58780    1.000
    C9       C        0.74870    0.81120    0.65720    1.000
    C10      C        0.04360    0.62830    0.82600    1.000
    C11      C        0.13620    0.68370    0.82560    1.000
    C12      C        0.23530    0.73130    0.72890    1.000
    C13      C        0.23270    0.75170    0.65480    1.000
    C14      C        0.32960    0.77460    0.62580    1.000
    C15      C        0.32930    0.79700    0.55880    1.000
    C16      C        0.23280    0.79780    0.51820    1.000
    C17      C        0.13580    0.77560    0.54490    1.000
    C18      C        0.13590    0.75030    0.61320    1.000
    C19      C        0.85130    0.59740    0.81340    1.000
    C20      C        0.86650    0.52590    0.75270    1.000
    C21      C        0.85650    0.50070    0.54020    1.000
    C22      C        0.85310    0.44190    0.47750    1.000
    C23      C        0.86090    0.45630    0.40550    1.000
    C24      C        0.87430    0.52790    0.39680    1.000
    C25      C        0.85490    0.48370    0.61740    1.000
    C26      C        0.87760    0.58900    0.46030    1.000
    C27      C        0.40780    0.27590    0.62730    1.000
    C28      C        0.29310    0.24510    0.62940    1.000
    C29      C        0.17920    0.18970    0.71280    1.000
    C30      C        0.17000    0.16880    0.78550    1.000
    C31      C        0.08000    0.12610    0.79910    1.000
    C32      C        0.06930    0.10430    0.86570    1.000
    C33      C        0.14760    0.12560    0.92360    1.000
    C34      C        0.23590    0.16770    0.91220    1.000
    C35      C        0.24870    0.18880    0.84280    1.000
    C36      C        0.54360    0.37170    0.67400    1.000
    C37      C        0.63620    0.31630    0.67440    1.000
    C38      C        0.73530    0.26870    0.77110    1.000
    C39      C        0.73270    0.24830    0.84520    1.000
    C40      C        0.82960    0.22540    0.87420    1.000
    C41      C        0.82930    0.20300    0.94120    1.000
    C42      C        0.73280    0.20220    0.98180    1.000
    C43      C        0.63580    0.22440    0.95510    1.000
    C44      C        0.63590    0.24970    0.88680    1.000
    C45      C        0.35130    0.40260    0.68660    1.000
    C46      C        0.36650    0.47410    0.74730    1.000
    C47      C        0.35650    0.49930    0.95980    1.000
    C48      C        0.35310    0.55810    0.02250    1.000
    C49      C        0.36090    0.54370    0.09450    1.000
    C50      C        0.37430    0.47210    0.10320    1.000
    C51      C        0.35490    0.51630    0.88260    1.000
    C52      C        0.37760    0.41100    0.03970    1.000
    C53      C        0.09220    0.27590    0.12730    1.000
    C54      C        0.20690    0.24510    0.12940    1.000
    C55      C        0.32080    0.18970    0.21280    1.000
    C56      C        0.33000    0.16880    0.28550    1.000
    C57      C        0.42000    0.12610    0.29910    1.000
    C58      C        0.43070    0.10430    0.36570    1.000
    C59      C        0.35240    0.12560    0.42360    1.000
    C60      C        0.26410    0.16770    0.41220    1.000
    C61      C        0.25130    0.18880    0.34280    1.000
    C62      C        0.95640    0.37170    0.17400    1.000
    C63      C        0.86380    0.31630    0.17440    1.000
    C64      C        0.76470    0.26870    0.27110    1.000
    C65      C        0.76730    0.24830    0.34520    1.000
    C66      C        0.67040    0.22540    0.37420    1.000
    C67      C        0.67070    0.20300    0.44120    1.000
    C68      C        0.76720    0.20220    0.48180    1.000
    C69      C        0.86420    0.22440    0.45510    1.000
    C70      C        0.86410    0.24970    0.38680    1.000
    C71      C        0.14870    0.40260    0.18660    1.000
    C72      C        0.13350    0.47410    0.24730    1.000
    C73      C        0.14350    0.49930    0.45980    1.000
    C74      C        0.14690    0.55810    0.52250    1.000
    C75      C        0.13910    0.54370    0.59450    1.000
    C76      C        0.12570    0.47210    0.60320    1.000
    C77      C        0.14510    0.51630    0.38260    1.000
    C78      C        0.12240    0.41100    0.53970    1.000
    C79      C        0.59220    0.72410    0.37270    1.000
    C80      C        0.70690    0.75490    0.37060    1.000
    C81      C        0.82080    0.81030    0.28720    1.000
    C82      C        0.83000    0.83120    0.21450    1.000
    C83      C        0.92000    0.87390    0.20090    1.000
    C84      C        0.93070    0.89570    0.13430    1.000
    C85      C        0.85240    0.87440    0.07640    1.000
    C86      C        0.76410    0.83230    0.08780    1.000
    C87      C        0.75130    0.81120    0.15720    1.000
    C88      C        0.45640    0.62830    0.32600    1.000
    C89      C        0.36380    0.68370    0.32560    1.000
    C90      C        0.26470    0.73130    0.22890    1.000
    C91      C        0.26730    0.75170    0.15480    1.000
    C92      C        0.17040    0.77460    0.12580    1.000
    C93      C        0.17070    0.79700    0.05880    1.000
    C94      C        0.26720    0.79780    0.01820    1.000
    C95      C        0.36420    0.77560    0.04490    1.000
    C96      C        0.36410    0.75030    0.11320    1.000
    C97      C        0.64870    0.59740    0.31340    1.000
    C98      C        0.63350    0.52590    0.25270    1.000
    C99      C        0.64350    0.50070    0.04020    1.000
    C100     C        0.64690    0.44190    0.97750    1.000
    C101     C        0.63910    0.45630    0.90550    1.000
    C102     C        0.62570    0.52790    0.89680    1.000
    C103     C        0.64510    0.48370    0.11740    1.000
    C104     C        0.62240    0.58900    0.96030    1.000
    N1       N        0.93430    0.65650    0.81340    1.000
    N2       N        0.77210    0.77520    0.79960    1.000
    N3       N        0.14230    0.70550    0.75360    1.000
    N4       N        0.86230    0.54060    0.67760    1.000
    N5       N        0.86500    0.57230    0.52980    1.000
    N6       N        0.43430    0.34350    0.68660    1.000
    N7       N        0.27210    0.22480    0.70040    1.000
    N8       N        0.64230    0.29450    0.74640    1.000
    N9       N        0.36230    0.45940    0.82240    1.000
    N10      N        0.36500    0.42770    0.97020    1.000
    N11      N        0.06570    0.34350    0.18660    1.000
    N12      N        0.22790    0.22480    0.20040    1.000
    N13      N        0.85770    0.29450    0.24640    1.000
    N14      N        0.13770    0.45940    0.32240    1.000
    N15      N        0.13500    0.42770    0.47020    1.000
    N16      N        0.56570    0.65650    0.31340    1.000
    N17      N        0.72790    0.77520    0.29960    1.000
    N18      N        0.35770    0.70550    0.25360    1.000
    N19      N        0.63770    0.54060    0.17760    1.000
    N20      N        0.63500    0.57230    0.02980    1.000
    O1       O        0.83830    0.77190    0.66280    1.000
    O2       O        0.81450    0.80710    0.53660    1.000
    O3       O        0.60670    0.82410    0.83670    1.000
    O4       O        0.04040    0.72530    0.63270    1.000
    O5       O        0.03750    0.77530    0.51190    1.000
    O6       O        0.32040    0.73730    0.76740    1.000
    O7       O        0.86320    0.63350    0.58780    1.000
    O8       O        0.89220    0.65860    0.46030    1.000
    O9       O        0.84900    0.41720    0.62100    1.000
    O10      O        0.08340    0.97690    0.57980    1.000
    O11      O        0.33830    0.22810    0.83720    1.000
    O12      O        0.31450    0.19290    0.96340    1.000
    O13      O        0.10670    0.17590    0.66330    1.000
    O14      O        0.54040    0.27470    0.86730    1.000
    O15      O        0.53750    0.22470    0.98810    1.000
    O16      O        0.82040    0.26270    0.73260    1.000
    O17      O        0.36320    0.36650    0.91220    1.000
    O18      O        0.39220    0.34140    0.03970    1.000
    O19      O        0.34900    0.58280    0.87900    1.000
    O20      O        0.58340    0.02310    0.92020    1.000
    O21      O        0.16170    0.22810    0.33720    1.000
    O22      O        0.18550    0.19290    0.46340    1.000
    O23      O        0.39330    0.17590    0.16330    1.000
    O24      O        0.95960    0.27470    0.36730    1.000
    O25      O        0.96250    0.22470    0.48810    1.000
    O26      O        0.67960    0.26270    0.23260    1.000
    O27      O        0.13680    0.36650    0.41220    1.000
    O28      O        0.10780    0.34140    0.53970    1.000
    O29      O        0.15100    0.58280    0.37900    1.000
    O30      O        0.91660    0.02310    0.42020    1.000
    O31      O        0.66170    0.77190    0.16280    1.000
    O32      O        0.68550    0.80710    0.03660    1.000
    O33      O        0.89330    0.82410    0.33670    1.000
    O34      O        0.45960    0.72530    0.13270    1.000
    O35      O        0.46250    0.77530    0.01190    1.000
    O36      O        0.17960    0.73730    0.26740    1.000
    O37      O        0.63680    0.63350    0.08780    1.000
    O38      O        0.60780    0.65860    0.96030    1.000
    O39      O        0.65100    0.41720    0.12100    1.000
    O40      O        0.41660    0.97690    0.07980    1.000
