# CIF file generated by openbabel 3.1.0, see https://openbabel.org
data_I
_chemical_name_common 'AXOHIE_clean'
_cell_length_a 11.8103
_cell_length_b 23.221
_cell_length_c 45.467
_cell_angle_alpha 104.516
_cell_angle_beta 90
_cell_angle_gamma 90
_space_group_name_H-M_alt 'P 1'
_space_group_name_Hall 'P 1'
loop_
    _symmetry_equiv_pos_as_xyz
    x,y,z
loop_
    _atom_site_label
    _atom_site_type_symbol
    _atom_site_fract_x
    _atom_site_fract_y
    _atom_site_fract_z
    _atom_site_occupancy
    Cd1      Cd       0.87421    0.58285    0.72332    1.000
    Cd2      Cd       0.57879    0.90425    0.05966    1.000
    Cd3      Cd       0.62579    0.58285    0.22332    1.000
    Cd4      Cd       0.92121    0.90425    0.55966    1.000
    H1       H        0.83370    0.75900    0.81580    1.000
    H2       H        0.78180    0.80070    0.86470    1.000
    H3       H        0.72650    0.63850    0.87690    1.000
    H4       H        0.78410    0.59730    0.82850    1.000
    H5       H        0.60580    0.87420    0.95020    1.000
    H6       H        0.64350    0.82710    0.90070    1.000
    H7       H        0.73250    0.68420    0.92520    1.000
    H8       H        0.67060    0.72720    0.97260    1.000
    H9       H        0.91480    0.40440    0.63020    1.000
    H10      H        0.92910    0.30380    0.60970    1.000
    H11      H        0.90830    0.27350    0.69100    1.000
    H12      H        0.89300    0.37380    0.71290    1.000
    H13      H        0.96100    0.08560    0.64900    1.000
    H14      H        0.96860    0.18470    0.67010    1.000
    H15      H        0.86780    0.21500    0.59280    1.000
    H16      H        0.85900    0.11550    0.57210    1.000
    H17      H        0.88350    0.58850    0.65320    1.000
    H18      H        0.89390    0.64960    0.62140    1.000
    H19      H        0.87890    0.78940    0.69400    1.000
    H20      H        0.86450    0.72430    0.72360    1.000
    H21      H        0.87560    0.77300    0.56350    1.000
    H22      H        0.85720    0.70950    0.59420    1.000
    H23      H        0.95360    0.83970    0.66380    1.000
    H24      H        0.96220    0.90060    0.63130    1.000
    H25      H        0.65300    0.49800    0.70360    1.000
    H26      H        0.45950    0.49370    0.70410    1.000
    H27      H        0.46080    0.67150    0.73700    1.000
    H28      H        0.65320    0.66940    0.73610    1.000
    H29      H        0.09310    0.66550    0.71710    1.000
    H30      H        0.28620    0.66700    0.71540    1.000
    H31      H        0.28660    0.50020    0.72640    1.000
    H32      H        0.09410    0.50400    0.72780    1.000
    H33      H        0.36210    0.93480    0.10210    1.000
    H34      H        0.16780    0.93250    0.10470    1.000
    H35      H        0.16570    0.85260    0.01740    1.000
    H36      H        0.35740    0.85720    0.01700    1.000
    H37      H        0.80170    0.82900    0.03010    1.000
    H38      H        0.99240    0.82270    0.03110    1.000
    H39      H        0.99500    0.96050    0.09630    1.000
    H40      H        0.80250    0.96260    0.09490    1.000
    H41      H        0.66630    0.75900    0.31580    1.000
    H42      H        0.71820    0.80070    0.36470    1.000
    H43      H        0.77350    0.63850    0.37690    1.000
    H44      H        0.71590    0.59730    0.32850    1.000
    H45      H        0.89420    0.87420    0.45020    1.000
    H46      H        0.85650    0.82710    0.40070    1.000
    H47      H        0.76750    0.68420    0.42520    1.000
    H48      H        0.82940    0.72720    0.47260    1.000
    H49      H        0.58520    0.40440    0.13020    1.000
    H50      H        0.57090    0.30380    0.10970    1.000
    H51      H        0.59170    0.27350    0.19100    1.000
    H52      H        0.60700    0.37380    0.21290    1.000
    H53      H        0.53900    0.08560    0.14900    1.000
    H54      H        0.53140    0.18470    0.17010    1.000
    H55      H        0.63220    0.21500    0.09280    1.000
    H56      H        0.64100    0.11550    0.07210    1.000
    H57      H        0.61650    0.58850    0.15320    1.000
    H58      H        0.60610    0.64960    0.12140    1.000
    H59      H        0.62110    0.78940    0.19400    1.000
    H60      H        0.63550    0.72430    0.22360    1.000
    H61      H        0.62440    0.77300    0.06350    1.000
    H62      H        0.64280    0.70950    0.09420    1.000
    H63      H        0.54640    0.83970    0.16380    1.000
    H64      H        0.53780    0.90060    0.13130    1.000
    H65      H        0.84700    0.49800    0.20360    1.000
    H66      H        0.04050    0.49370    0.20410    1.000
    H67      H        0.03920    0.67150    0.23700    1.000
    H68      H        0.84680    0.66940    0.23610    1.000
    H69      H        0.40690    0.66550    0.21710    1.000
    H70      H        0.21380    0.66700    0.21540    1.000
    H71      H        0.21340    0.50020    0.22640    1.000
    H72      H        0.40590    0.50400    0.22780    1.000
    H73      H        0.13790    0.93480    0.60210    1.000
    H74      H        0.33220    0.93250    0.60470    1.000
    H75      H        0.33430    0.85260    0.51740    1.000
    H76      H        0.14260    0.85720    0.51700    1.000
    H77      H        0.69830    0.82900    0.53010    1.000
    H78      H        0.50760    0.82270    0.53110    1.000
    H79      H        0.50500    0.96050    0.59630    1.000
    H80      H        0.69750    0.96260    0.59490    1.000
    C1       C        0.81210    0.67327    0.81621    1.000
    C2       C        0.81200    0.73449    0.82810    1.000
    C3       C        0.78080    0.75957    0.85749    1.000
    C4       C        0.74790    0.72495    0.87665    1.000
    C5       C        0.74890    0.66318    0.86467    1.000
    C6       C        0.78190    0.63851    0.83555    1.000
    C7       C        0.63940    0.80627    0.96776    1.000
    C8       C        0.63100    0.83500    0.94543    1.000
    C9       C        0.65890    0.80770    0.91581    1.000
    C10      C        0.70930    0.75206    0.90799    1.000
    C11      C        0.70820    0.72360    0.92962    1.000
    C12      C        0.67210    0.75020    0.95854    1.000
    C13      C        0.84510    0.64639    0.78375    1.000
    C14      C        0.60370    0.83660    0.99979    1.000
    C15      C        0.90640    0.40034    0.67411    1.000
    C16      C        0.91430    0.37842    0.64282    1.000
    C17      C        0.92140    0.31776    0.63062    1.000
    C18      C        0.91770    0.27680    0.64807    1.000
    C19      C        0.90910    0.29968    0.67855    1.000
    C20      C        0.90140    0.36028    0.69201    1.000
    C21      C        0.92050    0.08917    0.60711    1.000
    C22      C        0.94520    0.11169    0.63699    1.000
    C23      C        0.94760    0.17130    0.64982    1.000
    C24      C        0.92030    0.21158    0.63407    1.000
    C25      C        0.88820    0.18900    0.60450    1.000
    C26      C        0.88560    0.12930    0.59183    1.000
    C27      C        0.89270    0.46546    0.68852    1.000
    C28      C        0.92370    0.02230    0.59285    1.000
    C29      C        0.88170    0.62946    0.66144    1.000
    C30      C        0.88880    0.66596    0.64224    1.000
    C31      C        0.88850    0.72720    0.65344    1.000
    C32      C        0.87930    0.74867    0.68515    1.000
    C33      C        0.87120    0.70923    0.70269    1.000
    C34      C        0.89020    0.78736    0.58414    1.000
    C35      C        0.87950    0.74860    0.60258    1.000
    C36      C        0.90110    0.76693    0.63276    1.000
    C37      C        0.93510    0.82491    0.64345    1.000
    C38      C        0.94140    0.86109    0.62355    1.000
    C39      C        0.61310    0.53319    0.71089    1.000
    C40      C        0.49640    0.53003    0.71054    1.000
    C41      C        0.43550    0.58285    0.72015    1.000
    C42      C        0.49810    0.63538    0.73016    1.000
    C43      C        0.61370    0.63376    0.72984    1.000
    C44      C        0.13280    0.63198    0.71899    1.000
    C45      C        0.24890    0.63326    0.71790    1.000
    C46      C        0.31080    0.58318    0.72061    1.000
    C47      C        0.24930    0.53430    0.72445    1.000
    C48      C        0.13360    0.53711    0.72528    1.000
    C49      C        0.32180    0.91860    0.08437    1.000
    C50      C        0.20410    0.91810    0.08618    1.000
    C51      C        0.14250    0.89630    0.06028    1.000
    C52      C        0.20350    0.87150    0.03516    1.000
    C53      C        0.31940    0.87360    0.03505    1.000
    C54      C        0.84020    0.85930    0.04370    1.000
    C55      C        0.95750    0.85560    0.04370    1.000
    C56      C        0.01820    0.89500    0.06025    1.000
    C57      C        0.95760    0.93340    0.08080    1.000
    C58      C        0.83990    0.93440    0.07994    1.000
    C59      C        0.68790    0.67327    0.31621    1.000
    C60      C        0.68800    0.73449    0.32810    1.000
    C61      C        0.71920    0.75957    0.35749    1.000
    C62      C        0.75210    0.72495    0.37665    1.000
    C63      C        0.75110    0.66318    0.36467    1.000
    C64      C        0.71810    0.63851    0.33555    1.000
    C65      C        0.86060    0.80627    0.46776    1.000
    C66      C        0.86900    0.83500    0.44543    1.000
    C67      C        0.84110    0.80770    0.41581    1.000
    C68      C        0.79070    0.75206    0.40799    1.000
    C69      C        0.79180    0.72360    0.42962    1.000
    C70      C        0.82790    0.75020    0.45854    1.000
    C71      C        0.65490    0.64639    0.28375    1.000
    C72      C        0.89630    0.83660    0.49979    1.000
    C73      C        0.59360    0.40034    0.17411    1.000
    C74      C        0.58570    0.37842    0.14282    1.000
    C75      C        0.57860    0.31776    0.13062    1.000
    C76      C        0.58230    0.27680    0.14807    1.000
    C77      C        0.59090    0.29968    0.17855    1.000
    C78      C        0.59860    0.36028    0.19201    1.000
    C79      C        0.57950    0.08917    0.10711    1.000
    C80      C        0.55480    0.11169    0.13699    1.000
    C81      C        0.55240    0.17130    0.14982    1.000
    C82      C        0.57970    0.21158    0.13407    1.000
    C83      C        0.61180    0.18900    0.10450    1.000
    C84      C        0.61440    0.12930    0.09183    1.000
    C85      C        0.60730    0.46546    0.18852    1.000
    C86      C        0.57630    0.02230    0.09285    1.000
    C87      C        0.61830    0.62946    0.16144    1.000
    C88      C        0.61120    0.66596    0.14224    1.000
    C89      C        0.61150    0.72720    0.15344    1.000
    C90      C        0.62070    0.74867    0.18515    1.000
    C91      C        0.62880    0.70923    0.20269    1.000
    C92      C        0.60980    0.78736    0.08414    1.000
    C93      C        0.62050    0.74860    0.10258    1.000
    C94      C        0.59890    0.76693    0.13276    1.000
    C95      C        0.56490    0.82491    0.14345    1.000
    C96      C        0.55860    0.86109    0.12355    1.000
    C97      C        0.88690    0.53319    0.21089    1.000
    C98      C        0.00360    0.53003    0.21054    1.000
    C99      C        0.06450    0.58285    0.22015    1.000
    C100     C        0.00190    0.63538    0.23016    1.000
    C101     C        0.88630    0.63376    0.22984    1.000
    C102     C        0.36720    0.63198    0.21899    1.000
    C103     C        0.25110    0.63326    0.21790    1.000
    C104     C        0.18920    0.58318    0.22061    1.000
    C105     C        0.25070    0.53430    0.22445    1.000
    C106     C        0.36640    0.53711    0.22528    1.000
    C107     C        0.17820    0.91860    0.58437    1.000
    C108     C        0.29590    0.91810    0.58618    1.000
    C109     C        0.35750    0.89630    0.56028    1.000
    C110     C        0.29650    0.87150    0.53516    1.000
    C111     C        0.18060    0.87360    0.53505    1.000
    C112     C        0.65980    0.85930    0.54370    1.000
    C113     C        0.54250    0.85560    0.54370    1.000
    C114     C        0.48180    0.89500    0.56025    1.000
    C115     C        0.54240    0.93340    0.58080    1.000
    C116     C        0.66010    0.93440    0.57994    1.000
    N1       N        0.87210    0.64992    0.69177    1.000
    N2       N        0.91960    0.84296    0.59405    1.000
    N3       N        0.67310    0.58302    0.72084    1.000
    N4       N        0.07320    0.58466    0.72268    1.000
    N5       N        0.37940    0.89778    0.05944    1.000
    N6       N        0.78110    0.89968    0.06017    1.000
    N7       N        0.62790    0.64992    0.19177    1.000
    N8       N        0.58040    0.84296    0.09405    1.000
    N9       N        0.82690    0.58302    0.22084    1.000
    N10      N        0.42680    0.58466    0.22268    1.000
    N11      N        0.12060    0.89778    0.55944    1.000
    N12      N        0.71890    0.89968    0.56017    1.000
    O1       O        0.84750    0.67794    0.76524    1.000
    O2       O        0.86630    0.59123    0.77558    1.000
    O3       O        0.58910    0.89072    0.00702    1.000
    O4       O        0.59290    0.80557    0.01829    1.000
    O5       O        0.89410    0.50121    0.67215    1.000
    O6       O        0.87950    0.48190    0.71673    1.000
    O7       O        0.91280    0.00700    0.56453    1.000
    O8       O        0.93130    0.98664    0.60796    1.000
    O9       O        0.65250    0.67794    0.26524    1.000
    O10      O        0.63370    0.59123    0.27558    1.000
    O11      O        0.91090    0.89072    0.50702    1.000
    O12      O        0.90710    0.80557    0.51829    1.000
    O13      O        0.60590    0.50121    0.17215    1.000
    O14      O        0.62050    0.48190    0.21673    1.000
    O15      O        0.58720    0.00700    0.06453    1.000
    O16      O        0.56870    0.98664    0.10796    1.000
    Cd5      Cd       0.63216    0.12778    0.73621    1.000
    Cd6      Cd       0.91196    0.45184    0.07349    1.000
    Cd7      Cd       0.86784    0.12778    0.23621    1.000
    Cd8      Cd       0.58804    0.45184    0.57349    1.000
    H81      H        0.75030    0.14860    0.84040    1.000
    H82      H        0.79520    0.19540    0.89030    1.000
    H83      H        0.70350    0.35130    0.87650    1.000
    H84      H        0.65940    0.30550    0.82700    1.000
    H85      H        0.80300    0.28420    0.98820    1.000
    H86      H        0.75200    0.23940    0.93860    1.000
    H87      H        0.83380    0.38690    0.91400    1.000
    H88      H        0.89200    0.43150    0.96300    1.000
    H89      H        0.49260    0.92740    0.71770    1.000
    H90      H        0.46670    0.82720    0.69300    1.000
    H91      H        0.68890    0.84410    0.63010    1.000
    H92      H        0.69880    0.94460    0.65140    1.000
    H93      H        0.55490    0.63180    0.66310    1.000
    H94      H        0.54650    0.73500    0.68390    1.000
    H95      H        0.59270    0.76070    0.60160    1.000
    H96      H        0.59950    0.66050    0.58110    1.000
    H97      H        0.61380    0.26690    0.73550    1.000
    H98      H        0.60530    0.33080    0.70530    1.000
    H99      H        0.62120    0.19310    0.63300    1.000
    H100     H        0.64170    0.13240    0.66530    1.000
    H101     H        0.61810    0.44750    0.64300    1.000
    H102     H        0.62830    0.38800    0.67540    1.000
    H103     H        0.55800    0.25070    0.60660    1.000
    H104     H        0.54770    0.31510    0.57570    1.000
    H105     H        0.40780    0.05500    0.74900    1.000
    H106     H        0.21450    0.05060    0.74470    1.000
    H107     H        0.22100    0.20640    0.72330    1.000
    H108     H        0.41350    0.20630    0.72710    1.000
    H109     H        0.85260    0.04280    0.71370    1.000
    H110     H        0.04530    0.03970    0.71420    1.000
    H111     H        0.04390    0.21600    0.74660    1.000
    H112     H        0.85210    0.21310    0.74530    1.000
    H113     H        0.12870    0.49650    0.11660    1.000
    H114     H        0.32060    0.49190    0.11930    1.000
    H115     H        0.32980    0.40390    0.03280    1.000
    H116     H        0.13340    0.40740    0.03210    1.000
    H117     H        0.69100    0.36860    0.04960    1.000
    H118     H        0.49860    0.36870    0.04770    1.000
    H119     H        0.49890    0.52570    0.10770    1.000
    H120     H        0.69070    0.52340    0.10680    1.000
    H121     H        0.74970    0.14860    0.34040    1.000
    H122     H        0.70480    0.19540    0.39030    1.000
    H123     H        0.79650    0.35130    0.37650    1.000
    H124     H        0.84060    0.30550    0.32700    1.000
    H125     H        0.69700    0.28420    0.48820    1.000
    H126     H        0.74800    0.23940    0.43860    1.000
    H127     H        0.66620    0.38690    0.41400    1.000
    H128     H        0.60800    0.43150    0.46300    1.000
    H129     H        0.00740    0.92740    0.21770    1.000
    H130     H        0.03330    0.82720    0.19300    1.000
    H131     H        0.81110    0.84410    0.13010    1.000
    H132     H        0.80120    0.94460    0.15140    1.000
    H133     H        0.94510    0.63180    0.16310    1.000
    H134     H        0.95350    0.73500    0.18390    1.000
    H135     H        0.90730    0.76070    0.10160    1.000
    H136     H        0.90050    0.66050    0.08110    1.000
    H137     H        0.88620    0.26690    0.23550    1.000
    H138     H        0.89470    0.33080    0.20530    1.000
    H139     H        0.87880    0.19310    0.13300    1.000
    H140     H        0.85830    0.13240    0.16530    1.000
    H141     H        0.88190    0.44750    0.14300    1.000
    H142     H        0.87170    0.38800    0.17540    1.000
    H143     H        0.94200    0.25070    0.10660    1.000
    H144     H        0.95230    0.31510    0.07570    1.000
    H145     H        0.09220    0.05500    0.24900    1.000
    H146     H        0.28550    0.05060    0.24470    1.000
    H147     H        0.27900    0.20640    0.22330    1.000
    H148     H        0.08650    0.20630    0.22710    1.000
    H149     H        0.64740    0.04280    0.21370    1.000
    H150     H        0.45470    0.03970    0.21420    1.000
    H151     H        0.45610    0.21600    0.24660    1.000
    H152     H        0.64790    0.21310    0.24530    1.000
    H153     H        0.37130    0.49650    0.61660    1.000
    H154     H        0.17940    0.49190    0.61930    1.000
    H155     H        0.17020    0.40390    0.53280    1.000
    H156     H        0.36660    0.40740    0.53210    1.000
    H157     H        0.80900    0.36860    0.54960    1.000
    H158     H        0.00140    0.36870    0.54770    1.000
    H159     H        0.00110    0.52570    0.60770    1.000
    H160     H        0.80930    0.52340    0.60680    1.000
    C117     C        0.69910    0.22221    0.82815    1.000
    C118     C        0.74080    0.18947    0.84745    1.000
    C119     C        0.76840    0.21780    0.87747    1.000
    C120     C        0.75650    0.27861    0.88827    1.000
    C121     C        0.71410    0.31052    0.86937    1.000
    C122     C        0.68680    0.28271    0.83962    1.000
    C123     C        0.85220    0.36300    0.98077    1.000
    C124     C        0.81020    0.30500    0.97326    1.000
    C125     C        0.77920    0.27820    0.94335    1.000
    C126     C        0.78770    0.30780    0.92068    1.000
    C127     C        0.82870    0.36564    0.92884    1.000
    C128     C        0.86260    0.39310    0.95842    1.000
    C129     C        0.66930    0.19290    0.79591    1.000
    C130     C        0.88300    0.39070    0.01330    1.000
    C131     C        0.59670    0.94678    0.68648    1.000
    C132     C        0.52920    0.91130    0.69937    1.000
    C133     C        0.51560    0.85040    0.68484    1.000
    C134     C        0.57430    0.82510    0.65862    1.000
    C135     C        0.64530    0.86080    0.64718    1.000
    C136     C        0.65350    0.92110    0.66045    1.000
    C137     C        0.57570    0.63641    0.61988    1.000
    C138     C        0.56180    0.65779    0.65064    1.000
    C139     C        0.55820    0.72026    0.66315    1.000
    C140     C        0.57160    0.75874    0.64546    1.000
    C141     C        0.58540    0.73501    0.61424    1.000
    C142     C        0.58860    0.67509    0.60188    1.000
    C143     C        0.61030    0.01263    0.70149    1.000
    C144     C        0.58260    0.57022    0.60665    1.000
    C145     C        0.61730    0.25174    0.71455    1.000
    C146     C        0.60990    0.29011    0.69646    1.000
    C147     C        0.60910    0.26948    0.66484    1.000
    C148     C        0.62080    0.20957    0.65392    1.000
    C149     C        0.63190    0.17298    0.67348    1.000
    C150     C        0.60610    0.40694    0.63526    1.000
    C151     C        0.61300    0.37122    0.65496    1.000
    C152     C        0.59780    0.31113    0.64490    1.000
    C153     C        0.57170    0.29103    0.61470    1.000
    C154     C        0.56540    0.33003    0.59613    1.000
    C155     C        0.36980    0.08560    0.74329    1.000
    C156     C        0.25350    0.08300    0.74121    1.000
    C157     C        0.19540    0.12917    0.73379    1.000
    C158     C        0.25730    0.17475    0.72844    1.000
    C159     C        0.37330    0.17428    0.73062    1.000
    C160     C        0.89170    0.07820    0.72099    1.000
    C161     C        0.00790    0.07580    0.72114    1.000
    C162     C        0.06880    0.12813    0.73191    1.000
    C163     C        0.00710    0.17957    0.74030    1.000
    C164     C        0.89180    0.17750    0.73938    1.000
    C165     C        0.16910    0.47690    0.09943    1.000
    C166     C        0.28480    0.47530    0.10088    1.000
    C167     C        0.34900    0.45033    0.07616    1.000
    C168     C        0.29060    0.42330    0.05017    1.000
    C169     C        0.17170    0.42510    0.04997    1.000
    C170     C        0.65210    0.40170    0.06078    1.000
    C171     C        0.53630    0.40130    0.05983    1.000
    C172     C        0.47470    0.44897    0.07673    1.000
    C173     C        0.53590    0.49370    0.09488    1.000
    C174     C        0.65150    0.49180    0.09434    1.000
    C175     C        0.80090    0.22221    0.32815    1.000
    C176     C        0.75920    0.18947    0.34745    1.000
    C177     C        0.73160    0.21780    0.37747    1.000
    C178     C        0.74350    0.27861    0.38827    1.000
    C179     C        0.78590    0.31052    0.36937    1.000
    C180     C        0.81320    0.28271    0.33962    1.000
    C181     C        0.64780    0.36300    0.48077    1.000
    C182     C        0.68980    0.30500    0.47326    1.000
    C183     C        0.72080    0.27820    0.44335    1.000
    C184     C        0.71230    0.30780    0.42068    1.000
    C185     C        0.67130    0.36564    0.42884    1.000
    C186     C        0.63740    0.39310    0.45842    1.000
    C187     C        0.83070    0.19290    0.29591    1.000
    C188     C        0.61700    0.39070    0.51330    1.000
    C189     C        0.90330    0.94678    0.18648    1.000
    C190     C        0.97080    0.91130    0.19937    1.000
    C191     C        0.98440    0.85040    0.18484    1.000
    C192     C        0.92570    0.82510    0.15862    1.000
    C193     C        0.85470    0.86080    0.14718    1.000
    C194     C        0.84650    0.92110    0.16045    1.000
    C195     C        0.92430    0.63641    0.11988    1.000
    C196     C        0.93820    0.65779    0.15064    1.000
    C197     C        0.94180    0.72026    0.16315    1.000
    C198     C        0.92840    0.75874    0.14546    1.000
    C199     C        0.91460    0.73501    0.11424    1.000
    C200     C        0.91140    0.67509    0.10188    1.000
    C201     C        0.88970    0.01263    0.20149    1.000
    C202     C        0.91740    0.57022    0.10665    1.000
    C203     C        0.88270    0.25174    0.21455    1.000
    C204     C        0.89010    0.29011    0.19646    1.000
    C205     C        0.89090    0.26948    0.16484    1.000
    C206     C        0.87920    0.20957    0.15392    1.000
    C207     C        0.86810    0.17298    0.17348    1.000
    C208     C        0.89390    0.40694    0.13526    1.000
    C209     C        0.88700    0.37122    0.15496    1.000
    C210     C        0.90220    0.31113    0.14490    1.000
    C211     C        0.92830    0.29103    0.11470    1.000
    C212     C        0.93460    0.33003    0.09613    1.000
    C213     C        0.13020    0.08560    0.24329    1.000
    C214     C        0.24650    0.08300    0.24121    1.000
    C215     C        0.30460    0.12917    0.23379    1.000
    C216     C        0.24270    0.17475    0.22844    1.000
    C217     C        0.12670    0.17428    0.23062    1.000
    C218     C        0.60830    0.07820    0.22099    1.000
    C219     C        0.49210    0.07580    0.22114    1.000
    C220     C        0.43120    0.12813    0.23191    1.000
    C221     C        0.49290    0.17957    0.24030    1.000
    C222     C        0.60820    0.17750    0.23938    1.000
    C223     C        0.33090    0.47690    0.59943    1.000
    C224     C        0.21520    0.47530    0.60088    1.000
    C225     C        0.15100    0.45033    0.57616    1.000
    C226     C        0.20940    0.42330    0.55017    1.000
    C227     C        0.32830    0.42510    0.54997    1.000
    C228     C        0.84790    0.40170    0.56078    1.000
    C229     C        0.96370    0.40130    0.55983    1.000
    C230     C        0.02530    0.44897    0.57673    1.000
    C231     C        0.96410    0.49370    0.59488    1.000
    C232     C        0.84850    0.49180    0.59434    1.000
    N13      N        0.62930    0.19311    0.70340    1.000
    N14      N        0.58370    0.38794    0.60650    1.000
    N15      N        0.43090    0.13027    0.73753    1.000
    N16      N        0.83230    0.12685    0.73044    1.000
    N17      N        0.11270    0.45111    0.07429    1.000
    N18      N        0.71140    0.44771    0.07705    1.000
    N19      N        0.87070    0.19311    0.20340    1.000
    N20      N        0.91630    0.38794    0.10650    1.000
    N21      N        0.06910    0.13027    0.23753    1.000
    N22      N        0.66770    0.12685    0.23044    1.000
    N23      N        0.38730    0.45111    0.57429    1.000
    N24      N        0.78860    0.44771    0.57705    1.000
    O17      O        0.66020    0.13694    0.78800    1.000
    O18      O        0.65410    0.22443    0.77744    1.000
    O19      O        0.89940    0.36042    0.03172    1.000
    O20      O        0.89330    0.44595    0.02107    1.000
    O21      O        0.61500    0.02583    0.73021    1.000
    O22      O        0.62230    0.04914    0.68772    1.000
    O23      O        0.57550    0.53567    0.62313    1.000
    O24      O        0.59270    0.55133    0.57806    1.000
    O25      O        0.83980    0.13694    0.28800    1.000
    O26      O        0.84590    0.22443    0.27744    1.000
    O27      O        0.60060    0.36042    0.53172    1.000
    O28      O        0.60670    0.44595    0.52107    1.000
    O29      O        0.88500    0.02583    0.23021    1.000
    O30      O        0.87770    0.04914    0.18772    1.000
    O31      O        0.92450    0.53567    0.12313    1.000
    O32      O        0.90730    0.55133    0.07806    1.000
    Cd9      Cd       0.37421    0.41715    0.77668    1.000
    Cd10     Cd       0.07879    0.09575    0.44034    1.000
    Cd11     Cd       0.12579    0.41715    0.27668    1.000
    Cd12     Cd       0.42121    0.09575    0.94034    1.000
    H161     H        0.33370    0.24100    0.68420    1.000
    H162     H        0.28180    0.19930    0.63530    1.000
    H163     H        0.22650    0.36150    0.62310    1.000
    H164     H        0.28410    0.40270    0.67150    1.000
    H165     H        0.10580    0.12580    0.54980    1.000
    H166     H        0.14350    0.17290    0.59930    1.000
    H167     H        0.23250    0.31580    0.57480    1.000
    H168     H        0.17060    0.27280    0.52740    1.000
    H169     H        0.41480    0.59560    0.86980    1.000
    H170     H        0.42910    0.69620    0.89030    1.000
    H171     H        0.40830    0.72650    0.80900    1.000
    H172     H        0.39300    0.62620    0.78710    1.000
    H173     H        0.46100    0.91440    0.85100    1.000
    H174     H        0.46860    0.81530    0.82990    1.000
    H175     H        0.36780    0.78500    0.90720    1.000
    H176     H        0.35900    0.88450    0.92790    1.000
    H177     H        0.38350    0.41150    0.84680    1.000
    H178     H        0.39390    0.35040    0.87860    1.000
    H179     H        0.37890    0.21060    0.80600    1.000
    H180     H        0.36450    0.27570    0.77640    1.000
    H181     H        0.37560    0.22700    0.93650    1.000
    H182     H        0.35720    0.29050    0.90580    1.000
    H183     H        0.45360    0.16030    0.83620    1.000
    H184     H        0.46220    0.09940    0.86870    1.000
    H185     H        0.15300    0.50200    0.79640    1.000
    H186     H        0.95950    0.50630    0.79590    1.000
    H187     H        0.96080    0.32850    0.76300    1.000
    H188     H        0.15320    0.33060    0.76390    1.000
    H189     H        0.59310    0.33450    0.78290    1.000
    H190     H        0.78620    0.33300    0.78460    1.000
    H191     H        0.78660    0.49980    0.77360    1.000
    H192     H        0.59410    0.49600    0.77220    1.000
    H193     H        0.86210    0.06520    0.39790    1.000
    H194     H        0.66780    0.06750    0.39530    1.000
    H195     H        0.66570    0.14740    0.48260    1.000
    H196     H        0.85740    0.14280    0.48300    1.000
    H197     H        0.30170    0.17100    0.46990    1.000
    H198     H        0.49240    0.17730    0.46890    1.000
    H199     H        0.49500    0.03950    0.40370    1.000
    H200     H        0.30250    0.03740    0.40510    1.000
    H201     H        0.16630    0.24100    0.18420    1.000
    H202     H        0.21820    0.19930    0.13530    1.000
    H203     H        0.27350    0.36150    0.12310    1.000
    H204     H        0.21590    0.40270    0.17150    1.000
    H205     H        0.39420    0.12580    0.04980    1.000
    H206     H        0.35650    0.17290    0.09930    1.000
    H207     H        0.26750    0.31580    0.07480    1.000
    H208     H        0.32940    0.27280    0.02740    1.000
    H209     H        0.08520    0.59560    0.36980    1.000
    H210     H        0.07090    0.69620    0.39030    1.000
    H211     H        0.09170    0.72650    0.30900    1.000
    H212     H        0.10700    0.62620    0.28710    1.000
    H213     H        0.03900    0.91440    0.35100    1.000
    H214     H        0.03140    0.81530    0.32990    1.000
    H215     H        0.13220    0.78500    0.40720    1.000
    H216     H        0.14100    0.88450    0.42790    1.000
    H217     H        0.11650    0.41150    0.34680    1.000
    H218     H        0.10610    0.35040    0.37860    1.000
    H219     H        0.12110    0.21060    0.30600    1.000
    H220     H        0.13550    0.27570    0.27640    1.000
    H221     H        0.12440    0.22700    0.43650    1.000
    H222     H        0.14280    0.29050    0.40580    1.000
    H223     H        0.04640    0.16030    0.33620    1.000
    H224     H        0.03780    0.09940    0.36870    1.000
    H225     H        0.34700    0.50200    0.29640    1.000
    H226     H        0.54050    0.50630    0.29590    1.000
    H227     H        0.53920    0.32850    0.26300    1.000
    H228     H        0.34680    0.33060    0.26390    1.000
    H229     H        0.90690    0.33450    0.28290    1.000
    H230     H        0.71380    0.33300    0.28460    1.000
    H231     H        0.71340    0.49980    0.27360    1.000
    H232     H        0.90590    0.49600    0.27220    1.000
    H233     H        0.63790    0.06520    0.89790    1.000
    H234     H        0.83220    0.06750    0.89530    1.000
    H235     H        0.83430    0.14740    0.98260    1.000
    H236     H        0.64260    0.14280    0.98300    1.000
    H237     H        0.19830    0.17100    0.96990    1.000
    H238     H        0.00760    0.17730    0.96890    1.000
    H239     H        0.00500    0.03950    0.90370    1.000
    H240     H        0.19750    0.03740    0.90510    1.000
    C233     C        0.31210    0.32673    0.68379    1.000
    C234     C        0.31200    0.26551    0.67190    1.000
    C235     C        0.28080    0.24043    0.64251    1.000
    C236     C        0.24790    0.27505    0.62335    1.000
    C237     C        0.24890    0.33682    0.63533    1.000
    C238     C        0.28190    0.36149    0.66445    1.000
    C239     C        0.13940    0.19373    0.53224    1.000
    C240     C        0.13100    0.16500    0.55457    1.000
    C241     C        0.15890    0.19230    0.58419    1.000
    C242     C        0.20930    0.24794    0.59201    1.000
    C243     C        0.20820    0.27640    0.57038    1.000
    C244     C        0.17210    0.24980    0.54146    1.000
    C245     C        0.34510    0.35361    0.71625    1.000
    C246     C        0.10370    0.16340    0.50021    1.000
    C247     C        0.40640    0.59966    0.82589    1.000
    C248     C        0.41430    0.62158    0.85718    1.000
    C249     C        0.42140    0.68224    0.86938    1.000
    C250     C        0.41770    0.72320    0.85193    1.000
    C251     C        0.40910    0.70032    0.82145    1.000
    C252     C        0.40140    0.63972    0.80799    1.000
    C253     C        0.42050    0.91083    0.89289    1.000
    C254     C        0.44520    0.88831    0.86301    1.000
    C255     C        0.44760    0.82870    0.85018    1.000
    C256     C        0.42030    0.78842    0.86593    1.000
    C257     C        0.38820    0.81100    0.89550    1.000
    C258     C        0.38560    0.87070    0.90817    1.000
    C259     C        0.39270    0.53454    0.81148    1.000
    C260     C        0.42370    0.97770    0.90715    1.000
    C261     C        0.38170    0.37054    0.83856    1.000
    C262     C        0.38880    0.33404    0.85776    1.000
    C263     C        0.38850    0.27280    0.84656    1.000
    C264     C        0.37930    0.25133    0.81485    1.000
    C265     C        0.37120    0.29077    0.79731    1.000
    C266     C        0.39020    0.21264    0.91586    1.000
    C267     C        0.37950    0.25140    0.89742    1.000
    C268     C        0.40110    0.23307    0.86724    1.000
    C269     C        0.43510    0.17509    0.85655    1.000
    C270     C        0.44140    0.13891    0.87645    1.000
    C271     C        0.11310    0.46681    0.78911    1.000
    C272     C        0.99640    0.46997    0.78946    1.000
    C273     C        0.93550    0.41715    0.77985    1.000
    C274     C        0.99810    0.36462    0.76984    1.000
    C275     C        0.11370    0.36624    0.77016    1.000
    C276     C        0.63280    0.36802    0.78101    1.000
    C277     C        0.74890    0.36674    0.78210    1.000
    C278     C        0.81080    0.41682    0.77939    1.000
    C279     C        0.74930    0.46570    0.77555    1.000
    C280     C        0.63360    0.46289    0.77472    1.000
    C281     C        0.82180    0.08140    0.41563    1.000
    C282     C        0.70410    0.08190    0.41382    1.000
    C283     C        0.64250    0.10370    0.43972    1.000
    C284     C        0.70350    0.12850    0.46484    1.000
    C285     C        0.81940    0.12640    0.46495    1.000
    C286     C        0.34020    0.14070    0.45630    1.000
    C287     C        0.45750    0.14440    0.45630    1.000
    C288     C        0.51820    0.10500    0.43975    1.000
    C289     C        0.45760    0.06660    0.41920    1.000
    C290     C        0.33990    0.06560    0.42006    1.000
    C291     C        0.18790    0.32673    0.18379    1.000
    C292     C        0.18800    0.26551    0.17190    1.000
    C293     C        0.21920    0.24043    0.14251    1.000
    C294     C        0.25210    0.27505    0.12335    1.000
    C295     C        0.25110    0.33682    0.13533    1.000
    C296     C        0.21810    0.36149    0.16445    1.000
    C297     C        0.36060    0.19373    0.03224    1.000
    C298     C        0.36900    0.16500    0.05457    1.000
    C299     C        0.34110    0.19230    0.08419    1.000
    C300     C        0.29070    0.24794    0.09201    1.000
    C301     C        0.29180    0.27640    0.07038    1.000
    C302     C        0.32790    0.24980    0.04146    1.000
    C303     C        0.15490    0.35361    0.21625    1.000
    C304     C        0.39630    0.16340    0.00021    1.000
    C305     C        0.09360    0.59966    0.32589    1.000
    C306     C        0.08570    0.62158    0.35718    1.000
    C307     C        0.07860    0.68224    0.36938    1.000
    C308     C        0.08230    0.72320    0.35193    1.000
    C309     C        0.09090    0.70032    0.32145    1.000
    C310     C        0.09860    0.63972    0.30799    1.000
    C311     C        0.07950    0.91083    0.39289    1.000
    C312     C        0.05480    0.88831    0.36301    1.000
    C313     C        0.05240    0.82870    0.35018    1.000
    C314     C        0.07970    0.78842    0.36593    1.000
    C315     C        0.11180    0.81100    0.39550    1.000
    C316     C        0.11440    0.87070    0.40817    1.000
    C317     C        0.10730    0.53454    0.31148    1.000
    C318     C        0.07630    0.97770    0.40715    1.000
    C319     C        0.11830    0.37054    0.33856    1.000
    C320     C        0.11120    0.33404    0.35776    1.000
    C321     C        0.11150    0.27280    0.34656    1.000
    C322     C        0.12070    0.25133    0.31485    1.000
    C323     C        0.12880    0.29077    0.29731    1.000
    C324     C        0.10980    0.21264    0.41586    1.000
    C325     C        0.12050    0.25140    0.39742    1.000
    C326     C        0.09890    0.23307    0.36724    1.000
    C327     C        0.06490    0.17509    0.35655    1.000
    C328     C        0.05860    0.13891    0.37645    1.000
    C329     C        0.38690    0.46681    0.28911    1.000
    C330     C        0.50360    0.46997    0.28946    1.000
    C331     C        0.56450    0.41715    0.27985    1.000
    C332     C        0.50190    0.36462    0.26984    1.000
    C333     C        0.38630    0.36624    0.27016    1.000
    C334     C        0.86720    0.36802    0.28101    1.000
    C335     C        0.75110    0.36674    0.28210    1.000
    C336     C        0.68920    0.41682    0.27939    1.000
    C337     C        0.75070    0.46570    0.27555    1.000
    C338     C        0.86640    0.46289    0.27472    1.000
    C339     C        0.67820    0.08140    0.91563    1.000
    C340     C        0.79590    0.08190    0.91382    1.000
    C341     C        0.85750    0.10370    0.93972    1.000
    C342     C        0.79650    0.12850    0.96484    1.000
    C343     C        0.68060    0.12640    0.96495    1.000
    C344     C        0.15980    0.14070    0.95630    1.000
    C345     C        0.04250    0.14440    0.95630    1.000
    C346     C        0.98180    0.10500    0.93975    1.000
    C347     C        0.04240    0.06660    0.91920    1.000
    C348     C        0.16010    0.06560    0.92006    1.000
    N25      N        0.37210    0.35008    0.80823    1.000
    N26      N        0.41960    0.15704    0.90595    1.000
    N27      N        0.17310    0.41698    0.77916    1.000
    N28      N        0.57320    0.41534    0.77732    1.000
    N29      N        0.87940    0.10222    0.44056    1.000
    N30      N        0.28110    0.10032    0.43983    1.000
    N31      N        0.12790    0.35008    0.30823    1.000
    N32      N        0.08040    0.15704    0.40595    1.000
    N33      N        0.32690    0.41698    0.27916    1.000
    N34      N        0.92680    0.41534    0.27732    1.000
    N35      N        0.62060    0.10222    0.94056    1.000
    N36      N        0.21890    0.10032    0.93983    1.000
    O33      O        0.34750    0.32206    0.73476    1.000
    O34      O        0.36630    0.40877    0.72442    1.000
    O35      O        0.08910    0.10928    0.49298    1.000
    O36      O        0.09290    0.19443    0.48171    1.000
    O37      O        0.39410    0.49879    0.82785    1.000
    O38      O        0.37950    0.51810    0.78327    1.000
    O39      O        0.41280    0.99300    0.93547    1.000
    O40      O        0.43130    0.01336    0.89204    1.000
    O41      O        0.15250    0.32206    0.23476    1.000
    O42      O        0.13370    0.40877    0.22442    1.000
    O43      O        0.41090    0.10928    0.99298    1.000
    O44      O        0.40710    0.19443    0.98171    1.000
    O45      O        0.10590    0.49879    0.32785    1.000
    O46      O        0.12050    0.51810    0.28327    1.000
    O47      O        0.08720    0.99300    0.43547    1.000
    O48      O        0.06870    0.01336    0.39204    1.000
    Cd13     Cd       0.13216    0.87222    0.76379    1.000
    Cd14     Cd       0.41196    0.54816    0.42651    1.000
    Cd15     Cd       0.36784    0.87222    0.26379    1.000
    Cd16     Cd       0.08804    0.54816    0.92651    1.000
    H241     H        0.25030    0.85140    0.65960    1.000
    H242     H        0.29520    0.80460    0.60970    1.000
    H243     H        0.20350    0.64870    0.62350    1.000
    H244     H        0.15940    0.69450    0.67300    1.000
    H245     H        0.30300    0.71580    0.51180    1.000
    H246     H        0.25200    0.76060    0.56140    1.000
    H247     H        0.33380    0.61310    0.58600    1.000
    H248     H        0.39200    0.56850    0.53700    1.000
    H249     H        0.99260    0.07260    0.78230    1.000
    H250     H        0.96670    0.17280    0.80700    1.000
    H251     H        0.18890    0.15590    0.86990    1.000
    H252     H        0.19880    0.05540    0.84860    1.000
    H253     H        0.05490    0.36820    0.83690    1.000
    H254     H        0.04650    0.26500    0.81610    1.000
    H255     H        0.09270    0.23930    0.89840    1.000
    H256     H        0.09950    0.33950    0.91890    1.000
    H257     H        0.11380    0.73310    0.76450    1.000
    H258     H        0.10530    0.66920    0.79470    1.000
    H259     H        0.12120    0.80690    0.86700    1.000
    H260     H        0.14170    0.86760    0.83470    1.000
    H261     H        0.11810    0.55250    0.85700    1.000
    H262     H        0.12830    0.61200    0.82460    1.000
    H263     H        0.05800    0.74930    0.89340    1.000
    H264     H        0.04770    0.68490    0.92430    1.000
    H265     H        0.90780    0.94500    0.75100    1.000
    H266     H        0.71450    0.94940    0.75530    1.000
    H267     H        0.72100    0.79360    0.77670    1.000
    H268     H        0.91350    0.79370    0.77290    1.000
    H269     H        0.35260    0.95720    0.78630    1.000
    H270     H        0.54530    0.96030    0.78580    1.000
    H271     H        0.54390    0.78400    0.75340    1.000
    H272     H        0.35210    0.78690    0.75470    1.000
    H273     H        0.62870    0.50350    0.38340    1.000
    H274     H        0.82060    0.50810    0.38070    1.000
    H275     H        0.82980    0.59610    0.46720    1.000
    H276     H        0.63340    0.59260    0.46790    1.000
    H277     H        0.19100    0.63140    0.45040    1.000
    H278     H        0.99860    0.63130    0.45230    1.000
    H279     H        0.99890    0.47430    0.39230    1.000
    H280     H        0.19070    0.47660    0.39320    1.000
    H281     H        0.24970    0.85140    0.15960    1.000
    H282     H        0.20480    0.80460    0.10970    1.000
    H283     H        0.29650    0.64870    0.12350    1.000
    H284     H        0.34060    0.69450    0.17300    1.000
    H285     H        0.19700    0.71580    0.01180    1.000
    H286     H        0.24800    0.76060    0.06140    1.000
    H287     H        0.16620    0.61310    0.08600    1.000
    H288     H        0.10800    0.56850    0.03700    1.000
    H289     H        0.50740    0.07260    0.28230    1.000
    H290     H        0.53330    0.17280    0.30700    1.000
    H291     H        0.31110    0.15590    0.36990    1.000
    H292     H        0.30120    0.05540    0.34860    1.000
    H293     H        0.44510    0.36820    0.33690    1.000
    H294     H        0.45350    0.26500    0.31610    1.000
    H295     H        0.40730    0.23930    0.39840    1.000
    H296     H        0.40050    0.33950    0.41890    1.000
    H297     H        0.38620    0.73310    0.26450    1.000
    H298     H        0.39470    0.66920    0.29470    1.000
    H299     H        0.37880    0.80690    0.36700    1.000
    H300     H        0.35830    0.86760    0.33470    1.000
    H301     H        0.38190    0.55250    0.35700    1.000
    H302     H        0.37170    0.61200    0.32460    1.000
    H303     H        0.44200    0.74930    0.39340    1.000
    H304     H        0.45230    0.68490    0.42430    1.000
    H305     H        0.59220    0.94500    0.25100    1.000
    H306     H        0.78550    0.94940    0.25530    1.000
    H307     H        0.77900    0.79360    0.27670    1.000
    H308     H        0.58650    0.79370    0.27290    1.000
    H309     H        0.14740    0.95720    0.28630    1.000
    H310     H        0.95470    0.96030    0.28580    1.000
    H311     H        0.95610    0.78400    0.25340    1.000
    H312     H        0.14790    0.78690    0.25470    1.000
    H313     H        0.87130    0.50350    0.88340    1.000
    H314     H        0.67940    0.50810    0.88070    1.000
    H315     H        0.67020    0.59610    0.96720    1.000
    H316     H        0.86660    0.59260    0.96790    1.000
    H317     H        0.30900    0.63140    0.95040    1.000
    H318     H        0.50140    0.63130    0.95230    1.000
    H319     H        0.50110    0.47430    0.89230    1.000
    H320     H        0.30930    0.47660    0.89320    1.000
    C349     C        0.19910    0.77779    0.67185    1.000
    C350     C        0.24080    0.81053    0.65255    1.000
    C351     C        0.26840    0.78220    0.62253    1.000
    C352     C        0.25650    0.72139    0.61173    1.000
    C353     C        0.21410    0.68948    0.63063    1.000
    C354     C        0.18680    0.71729    0.66038    1.000
    C355     C        0.35220    0.63700    0.51923    1.000
    C356     C        0.31020    0.69500    0.52674    1.000
    C357     C        0.27920    0.72180    0.55665    1.000
    C358     C        0.28770    0.69220    0.57932    1.000
    C359     C        0.32870    0.63436    0.57116    1.000
    C360     C        0.36260    0.60690    0.54158    1.000
    C361     C        0.16930    0.80710    0.70409    1.000
    C362     C        0.38300    0.60930    0.48670    1.000
    C363     C        0.09670    0.05322    0.81352    1.000
    C364     C        0.02920    0.08870    0.80063    1.000
    C365     C        0.01560    0.14960    0.81516    1.000
    C366     C        0.07430    0.17490    0.84138    1.000
    C367     C        0.14530    0.13920    0.85282    1.000
    C368     C        0.15350    0.07890    0.83955    1.000
    C369     C        0.07570    0.36359    0.88012    1.000
    C370     C        0.06180    0.34221    0.84936    1.000
    C371     C        0.05820    0.27974    0.83685    1.000
    C372     C        0.07160    0.24126    0.85454    1.000
    C373     C        0.08540    0.26499    0.88576    1.000
    C374     C        0.08860    0.32491    0.89812    1.000
    C375     C        0.11030    0.98737    0.79851    1.000
    C376     C        0.08260    0.42978    0.89335    1.000
    C377     C        0.11730    0.74826    0.78545    1.000
    C378     C        0.10990    0.70989    0.80354    1.000
    C379     C        0.10910    0.73052    0.83516    1.000
    C380     C        0.12080    0.79043    0.84608    1.000
    C381     C        0.13190    0.82702    0.82652    1.000
    C382     C        0.10610    0.59306    0.86474    1.000
    C383     C        0.11300    0.62878    0.84504    1.000
    C384     C        0.09780    0.68887    0.85510    1.000
    C385     C        0.07170    0.70897    0.88530    1.000
    C386     C        0.06540    0.66997    0.90387    1.000
    C387     C        0.86980    0.91440    0.75671    1.000
    C388     C        0.75350    0.91700    0.75879    1.000
    C389     C        0.69540    0.87083    0.76621    1.000
    C390     C        0.75730    0.82525    0.77156    1.000
    C391     C        0.87330    0.82572    0.76938    1.000
    C392     C        0.39170    0.92180    0.77901    1.000
    C393     C        0.50790    0.92420    0.77886    1.000
    C394     C        0.56880    0.87187    0.76809    1.000
    C395     C        0.50710    0.82043    0.75970    1.000
    C396     C        0.39180    0.82250    0.76062    1.000
    C397     C        0.66910    0.52310    0.40057    1.000
    C398     C        0.78480    0.52470    0.39912    1.000
    C399     C        0.84900    0.54967    0.42384    1.000
    C400     C        0.79060    0.57670    0.44983    1.000
    C401     C        0.67170    0.57490    0.45003    1.000
    C402     C        0.15210    0.59830    0.43922    1.000
    C403     C        0.03630    0.59870    0.44017    1.000
    C404     C        0.97470    0.55103    0.42327    1.000
    C405     C        0.03590    0.50630    0.40512    1.000
    C406     C        0.15150    0.50820    0.40566    1.000
    C407     C        0.30090    0.77779    0.17185    1.000
    C408     C        0.25920    0.81053    0.15255    1.000
    C409     C        0.23160    0.78220    0.12253    1.000
    C410     C        0.24350    0.72139    0.11173    1.000
    C411     C        0.28590    0.68948    0.13063    1.000
    C412     C        0.31320    0.71729    0.16038    1.000
    C413     C        0.14780    0.63700    0.01923    1.000
    C414     C        0.18980    0.69500    0.02674    1.000
    C415     C        0.22080    0.72180    0.05665    1.000
    C416     C        0.21230    0.69220    0.07932    1.000
    C417     C        0.17130    0.63436    0.07116    1.000
    C418     C        0.13740    0.60690    0.04158    1.000
    C419     C        0.33070    0.80710    0.20409    1.000
    C420     C        0.11700    0.60930    0.98670    1.000
    C421     C        0.40330    0.05322    0.31352    1.000
    C422     C        0.47080    0.08870    0.30063    1.000
    C423     C        0.48440    0.14960    0.31516    1.000
    C424     C        0.42570    0.17490    0.34138    1.000
    C425     C        0.35470    0.13920    0.35282    1.000
    C426     C        0.34650    0.07890    0.33955    1.000
    C427     C        0.42430    0.36359    0.38012    1.000
    C428     C        0.43820    0.34221    0.34936    1.000
    C429     C        0.44180    0.27974    0.33685    1.000
    C430     C        0.42840    0.24126    0.35454    1.000
    C431     C        0.41460    0.26499    0.38576    1.000
    C432     C        0.41140    0.32491    0.39812    1.000
    C433     C        0.38970    0.98737    0.29851    1.000
    C434     C        0.41740    0.42978    0.39335    1.000
    C435     C        0.38270    0.74826    0.28545    1.000
    C436     C        0.39010    0.70989    0.30354    1.000
    C437     C        0.39090    0.73052    0.33516    1.000
    C438     C        0.37920    0.79043    0.34608    1.000
    C439     C        0.36810    0.82702    0.32652    1.000
    C440     C        0.39390    0.59306    0.36474    1.000
    C441     C        0.38700    0.62878    0.34504    1.000
    C442     C        0.40220    0.68887    0.35510    1.000
    C443     C        0.42830    0.70897    0.38530    1.000
    C444     C        0.43460    0.66997    0.40387    1.000
    C445     C        0.63020    0.91440    0.25671    1.000
    C446     C        0.74650    0.91700    0.25879    1.000
    C447     C        0.80460    0.87083    0.26621    1.000
    C448     C        0.74270    0.82525    0.27156    1.000
    C449     C        0.62670    0.82572    0.26938    1.000
    C450     C        0.10830    0.92180    0.27901    1.000
    C451     C        0.99210    0.92420    0.27886    1.000
    C452     C        0.93120    0.87187    0.26809    1.000
    C453     C        0.99290    0.82043    0.25970    1.000
    C454     C        0.10820    0.82250    0.26062    1.000
    C455     C        0.83090    0.52310    0.90057    1.000
    C456     C        0.71520    0.52470    0.89912    1.000
    C457     C        0.65100    0.54967    0.92384    1.000
    C458     C        0.70940    0.57670    0.94983    1.000
    C459     C        0.82830    0.57490    0.95003    1.000
    C460     C        0.34790    0.59830    0.93922    1.000
    C461     C        0.46370    0.59870    0.94017    1.000
    C462     C        0.52530    0.55103    0.92327    1.000
    C463     C        0.46410    0.50630    0.90512    1.000
    C464     C        0.34850    0.50820    0.90566    1.000
    N37      N        0.12930    0.80689    0.79660    1.000
    N38      N        0.08370    0.61206    0.89350    1.000
    N39      N        0.93090    0.86973    0.76247    1.000
    N40      N        0.33230    0.87315    0.76956    1.000
    N41      N        0.61270    0.54889    0.42571    1.000
    N42      N        0.21140    0.55229    0.42295    1.000
    N43      N        0.37070    0.80689    0.29660    1.000
    N44      N        0.41630    0.61206    0.39350    1.000
    N45      N        0.56910    0.86973    0.26247    1.000
    N46      N        0.16770    0.87315    0.26956    1.000
    N47      N        0.88730    0.54889    0.92571    1.000
    N48      N        0.28860    0.55229    0.92295    1.000
    O49      O        0.16020    0.86306    0.71200    1.000
    O50      O        0.15410    0.77557    0.72256    1.000
    O51      O        0.39940    0.63958    0.46828    1.000
    O52      O        0.39330    0.55405    0.47893    1.000
    O53      O        0.11500    0.97417    0.76979    1.000
    O54      O        0.12230    0.95086    0.81228    1.000
    O55      O        0.07550    0.46433    0.87687    1.000
    O56      O        0.09270    0.44867    0.92194    1.000
    O57      O        0.33980    0.86306    0.21200    1.000
    O58      O        0.34590    0.77557    0.22256    1.000
    O59      O        0.10060    0.63958    0.96828    1.000
    O60      O        0.10670    0.55405    0.97893    1.000
    O61      O        0.38500    0.97417    0.26979    1.000
    O62      O        0.37770    0.95086    0.31228    1.000
    O63      O        0.42450    0.46433    0.37687    1.000
    O64      O        0.40730    0.44867    0.42194    1.000
