# CIF file generated by openbabel 3.1.0, see https://openbabel.org
data_I
_chemical_name_common 'image0'
_cell_length_a 14.485
_cell_length_b 12.321
_cell_length_c 16.948
_cell_angle_alpha 90
_cell_angle_beta 93.491
_cell_angle_gamma 90
_space_group_name_H-M_alt 'P 1'
_space_group_name_Hall 'P 1'
loop_
    _symmetry_equiv_pos_as_xyz
    x,y,z
loop_
    _atom_site_label
    _atom_site_type_symbol
    _atom_site_fract_x
    _atom_site_fract_y
    _atom_site_fract_z
    _atom_site_occupancy
    Cu1      Cu       0.69580    0.83086    0.00593    1.000
    C1       C        0.58260    0.10940    0.34930    1.000
    C2       C        0.57820    0.85030    0.15470    1.000
    N1       N        0.62480    0.12620    0.40770    1.000
    N2       N        0.62440    0.84740    0.09980    1.000
    C3       C        0.67330    0.63750    0.98550    1.000
    N3       N        0.61030    0.58650    0.98631    1.000
    Cu2      Cu       0.74709    0.75181    0.07209    1.000
    C4       C        0.61490    0.12050    0.32140    1.000
    C5       C        0.60130    0.83700    0.17320    1.000
    N4       N        0.67340    0.15170    0.36210    1.000
    N5       N        0.64690    0.81380    0.13110    1.000
    Cu3      Cu       0.19580    0.33086    0.00593    1.000
    C6       C        0.08260    0.60940    0.34930    1.000
    C7       C        0.07820    0.35030    0.15470    1.000
    N6       N        0.12480    0.62620    0.40770    1.000
    N7       N        0.12440    0.34740    0.09980    1.000
    C8       C        0.17330    0.13750    0.98550    1.000
    N8       N        0.11030    0.08650    0.98631    1.000
    Cu4      Cu       0.24709    0.25181    0.07209    1.000
    C9       C        0.11490    0.62050    0.32140    1.000
    C10      C        0.10130    0.33700    0.17320    1.000
    N9       N        0.17340    0.65170    0.36210    1.000
    N10      N        0.14690    0.31380    0.13110    1.000
    Cu5      Cu       0.30420    0.83086    0.49407    1.000
    C11      C        0.41740    0.10940    0.15070    1.000
    C12      C        0.42180    0.85030    0.34530    1.000
    N11      N        0.37520    0.12620    0.09230    1.000
    N12      N        0.37560    0.84740    0.40020    1.000
    C13      C        0.32670    0.63750    0.51450    1.000
    N13      N        0.38970    0.58650    0.51369    1.000
    Cu6      Cu       0.25291    0.75181    0.42791    1.000
    C14      C        0.38510    0.12050    0.17860    1.000
    C15      C        0.39870    0.83700    0.32680    1.000
    N14      N        0.32660    0.15170    0.13790    1.000
    N15      N        0.35310    0.81380    0.36890    1.000
    Cu7      Cu       0.80420    0.33086    0.49407    1.000
    C16      C        0.91740    0.60940    0.15070    1.000
    C17      C        0.92180    0.35030    0.34530    1.000
    N16      N        0.87520    0.62620    0.09230    1.000
    N17      N        0.87560    0.34740    0.40020    1.000
    C18      C        0.82670    0.13750    0.51450    1.000
    N18      N        0.88970    0.08650    0.51369    1.000
    Cu8      Cu       0.75291    0.25181    0.42791    1.000
    C19      C        0.88510    0.62050    0.17860    1.000
    C20      C        0.89870    0.33700    0.32680    1.000
    N19      N        0.82660    0.65170    0.13790    1.000
    N20      N        0.85310    0.31380    0.36890    1.000
    Cu9      Cu       0.30420    0.16914    0.99407    1.000
    C21      C        0.41740    0.89060    0.65070    1.000
    C22      C        0.42180    0.14970    0.84530    1.000
    N21      N        0.37520    0.87380    0.59230    1.000
    N22      N        0.37560    0.15260    0.90020    1.000
    C23      C        0.32670    0.36250    0.01450    1.000
    N23      N        0.38970    0.41350    0.01369    1.000
    Cu10     Cu       0.25291    0.24819    0.92791    1.000
    C24      C        0.38510    0.87950    0.67860    1.000
    C25      C        0.39870    0.16300    0.82680    1.000
    N24      N        0.32660    0.84830    0.63790    1.000
    N25      N        0.35310    0.18620    0.86890    1.000
    Cu11     Cu       0.80420    0.66914    0.99407    1.000
    C26      C        0.91740    0.39060    0.65070    1.000
    C27      C        0.92180    0.64970    0.84530    1.000
    N26      N        0.87520    0.37380    0.59230    1.000
    N27      N        0.87560    0.65260    0.90020    1.000
    C28      C        0.82670    0.86250    0.01450    1.000
    N28      N        0.88970    0.91350    0.01369    1.000
    Cu12     Cu       0.75291    0.74819    0.92791    1.000
    C29      C        0.88510    0.37950    0.67860    1.000
    C30      C        0.89870    0.66300    0.82680    1.000
    N29      N        0.82660    0.34830    0.63790    1.000
    N30      N        0.85310    0.68620    0.86890    1.000
    Cu13     Cu       0.69580    0.16914    0.50593    1.000
    C31      C        0.58260    0.89060    0.84930    1.000
    C32      C        0.57820    0.14970    0.65470    1.000
    N31      N        0.62480    0.87380    0.90770    1.000
    N32      N        0.62440    0.15260    0.59980    1.000
    C33      C        0.67330    0.36250    0.48550    1.000
    N33      N        0.61030    0.41350    0.48631    1.000
    Cu14     Cu       0.74709    0.24819    0.57209    1.000
    C34      C        0.61490    0.87950    0.82140    1.000
    C35      C        0.60130    0.16300    0.67320    1.000
    N34      N        0.67340    0.84830    0.86210    1.000
    N35      N        0.64690    0.18620    0.63110    1.000
    Cu15     Cu       0.19580    0.66914    0.50593    1.000
    C36      C        0.08260    0.39060    0.84930    1.000
    C37      C        0.07820    0.64970    0.65470    1.000
    N36      N        0.12480    0.37380    0.90770    1.000
    N37      N        0.12440    0.65260    0.59980    1.000
    C38      C        0.17330    0.86250    0.48550    1.000
    N38      N        0.11030    0.91350    0.48631    1.000
    Cu16     Cu       0.24709    0.74819    0.57209    1.000
    C39      C        0.11490    0.37950    0.82140    1.000
    C40      C        0.10130    0.66300    0.67320    1.000
    N39      N        0.17340    0.34830    0.86210    1.000
    N40      N        0.14690    0.68620    0.63110    1.000
    Ag1      Ag       0.50000    0.09802    0.25000    1.000
    Ag2      Ag       0.50000    0.85352    0.25000    1.000
    Ag3      Ag       0.00000    0.59802    0.25000    1.000
    Ag4      Ag       0.00000    0.35352    0.25000    1.000
    Ag5      Ag       0.50000    0.90198    0.75000    1.000
    Ag6      Ag       0.50000    0.14648    0.75000    1.000
    Ag7      Ag       0.00000    0.40198    0.75000    1.000
    Ag8      Ag       0.00000    0.64648    0.75000    1.000
    Cu17     Cu       0.50000    0.50000    0.00000    1.000
    Cu18     Cu       0.00000    0.00000    0.00000    1.000
    Cu19     Cu       0.50000    0.50000    0.50000    1.000
    Cu20     Cu       0.00000    0.00000    0.50000    1.000
