# CIF file generated by openbabel 3.1.0, see https://openbabel.org
data_I
_chemical_name_common 'image0'
_cell_length_a 7.987
_cell_length_b 8.534
_cell_length_c 11.259
_cell_angle_alpha 71.961
_cell_angle_beta 84.27
_cell_angle_gamma 68.045
_space_group_name_H-M_alt 'P 1'
_space_group_name_Hall 'P 1'
loop_
    _symmetry_equiv_pos_as_xyz
    x,y,z
loop_
    _atom_site_label
    _atom_site_type_symbol
    _atom_site_fract_x
    _atom_site_fract_y
    _atom_site_fract_z
    _atom_site_occupancy
    Nd1      Nd       0.78591    0.25810    0.97797    1.000
    O1       O        0.93770    0.96340    0.12050    1.000
    O2       O        0.08000    0.27270    0.02510    1.000
    O3       O        0.76120    0.34400    0.17290    1.000
    O4       O        0.51590    0.45780    0.86700    1.000
    O5       O        0.90240    0.29640    0.75580    1.000
    O6       O        0.20080    0.43910    0.07930    1.000
    C1       C        0.08430    0.41410    0.03070    1.000
    N1       N        0.96690    0.18340    0.54830    1.000
    N2       N        0.76890    0.36510    0.40690    1.000
    C2       C        0.04810    0.05680    0.66650    1.000
    H1       H        0.17820    0.01090    0.65840    1.000
    H2       H        0.00680    0.95850    0.68570    1.000
    C3       C        0.79810    0.23240    0.51130    1.000
    H3       H        0.71460    0.18240    0.55160    1.000
    C4       C        0.59600    0.45200    0.33710    1.000
    H4       H        0.54380    0.57450    0.33820    1.000
    H5       H        0.51290    0.39440    0.37840    1.000
    C5       C        0.61730    0.44770    0.20180    1.000
    C6       C        0.04700    0.28500    0.46520    1.000
    H6       H        0.16690    0.27560    0.46900    1.000
    C7       C        0.92800    0.40000    0.37880    1.000
    H7       H        0.94590    0.48740    0.31130    1.000
    C8       C        0.00130    0.13860    0.77330    1.000
    Nd2      Nd       0.21409    0.74190    0.02203    1.000
    O7       O        0.06230    0.03660    0.87950    1.000
    O8       O        0.92000    0.72730    0.97490    1.000
    O9       O        0.23880    0.65600    0.82710    1.000
    O10      O        0.48410    0.54220    0.13300    1.000
    O11      O        0.09760    0.70360    0.24420    1.000
    O12      O        0.79920    0.56090    0.92070    1.000
    C9       C        0.91570    0.58590    0.96930    1.000
    N3       N        0.03310    0.81660    0.45170    1.000
    N4       N        0.23110    0.63490    0.59310    1.000
    C10      C        0.95190    0.94320    0.33350    1.000
    H8       H        0.82180    0.98910    0.34160    1.000
    H9       H        0.99320    0.04150    0.31430    1.000
    C11      C        0.20190    0.76760    0.48870    1.000
    H10      H        0.28540    0.81760    0.44840    1.000
    C12      C        0.40400    0.54800    0.66290    1.000
    H11      H        0.45620    0.42550    0.66180    1.000
    H12      H        0.48710    0.60560    0.62160    1.000
    C13      C        0.38270    0.55230    0.79820    1.000
    C14      C        0.95300    0.71500    0.53480    1.000
    H13      H        0.83310    0.72440    0.53100    1.000
    C15      C        0.07200    0.60000    0.62120    1.000
    H14      H        0.05410    0.51260    0.68870    1.000
    C16      C        0.99870    0.86140    0.22670    1.000
