# CIF file generated by openbabel 3.1.0, see https://openbabel.org
data_I
_chemical_name_common 'CODKOX_clean'
_cell_length_a 8.869
_cell_length_b 12.07
_cell_length_c 16.6
_cell_angle_alpha 90
_cell_angle_beta 90
_cell_angle_gamma 109.341
_space_group_name_H-M_alt 'P 1'
_space_group_name_Hall 'P 1'
loop_
    _symmetry_equiv_pos_as_xyz
    x,y,z
loop_
    _atom_site_label
    _atom_site_type_symbol
    _atom_site_fract_x
    _atom_site_fract_y
    _atom_site_fract_z
    _atom_site_occupancy
    Gd1      Gd       0.43300    0.45267    0.88213    1.000
    Gd2      Gd       0.06700    0.54733    0.38213    1.000
    Gd3      Gd       0.56700    0.54733    0.11787    1.000
    Gd4      Gd       0.93300    0.45267    0.61787    1.000
    H1       H        0.90960    0.22510    0.82220    1.000
    H2       H        0.52990    0.21990    0.43390    1.000
    H3       H        0.37110    0.03580    0.43380    1.000
    H4       H        0.37770    0.86090    0.53290    1.000
    H5       H        0.75270    0.29510    0.07010    1.000
    H6       H        0.47010    0.78010    0.56610    1.000
    H7       H        0.62890    0.96420    0.56620    1.000
    H8       H        0.74730    0.70490    0.57010    1.000
    H9       H        0.32190    0.14100    0.90130    1.000
    H10      H        0.40960    0.22510    0.67780    1.000
    H11      H        0.02990    0.21990    0.06610    1.000
    H12      H        0.48660    0.83370    0.92680    1.000
    H13      H        0.40390    0.97440    0.77410    1.000
    H14      H        0.12230    0.13910    0.03290    1.000
    H15      H        0.70110    0.00400    0.91110    1.000
    H16      H        0.79890    0.99600    0.41110    1.000
    H17      H        0.87110    0.03580    0.06620    1.000
    H18      H        0.90390    0.97440    0.72590    1.000
    H19      H        0.09040    0.77490    0.17780    1.000
    H20      H        0.09650    0.15290    0.69460    1.000
    H21      H        0.01340    0.16630    0.42680    1.000
    H22      H        0.67290    0.67860    0.33140    1.000
    H23      H        0.87770    0.86090    0.96710    1.000
    H24      H        0.17810    0.85900    0.40130    1.000
    H25      H        0.24730    0.70490    0.92990    1.000
    H26      H        0.17290    0.67860    0.16860    1.000
    H27      H        0.82190    0.14100    0.59870    1.000
    H28      H        0.61790    0.63870    0.50670    1.000
    H29      H        0.29890    0.99600    0.08890    1.000
    H30      H        0.20110    0.00400    0.58890    1.000
    H31      H        0.67810    0.85900    0.09870    1.000
    H32      H        0.90350    0.84710    0.30540    1.000
    H33      H        0.51340    0.16630    0.07320    1.000
    H34      H        0.88210    0.36130    0.00670    1.000
    H35      H        0.40350    0.84710    0.19460    1.000
    H36      H        0.98660    0.83370    0.57320    1.000
    H37      H        0.32710    0.32140    0.66860    1.000
    H38      H        0.09610    0.02560    0.27410    1.000
    H39      H        0.12890    0.96420    0.93380    1.000
    H40      H        0.59040    0.77490    0.32220    1.000
    H41      H        0.62230    0.13910    0.46710    1.000
    H42      H        0.97010    0.78010    0.93390    1.000
    H43      H        0.59650    0.15290    0.80540    1.000
    H44      H        0.25270    0.29510    0.42990    1.000
    H45      H        0.59610    0.02560    0.22590    1.000
    H46      H        0.82710    0.32140    0.83140    1.000
    H47      H        0.38210    0.36130    0.49330    1.000
    H48      H        0.11790    0.63870    0.99330    1.000
    C1       C        0.93880    0.60950    0.20373    1.000
    C2       C        0.86940    0.89730    0.49060    1.000
    C3       C        0.27440    0.30670    0.48720    1.000
    C4       C        0.06120    0.39050    0.79627    1.000
    C5       C        0.77520    0.83550    0.20400    1.000
    C6       C        0.49130    0.90030    0.95630    1.000
    C7       C        0.50490    0.04710    0.33387    1.000
    C8       C        0.98690    0.00860    0.76174    1.000
    C9       C        0.72480    0.16450    0.70400    1.000
    C10      C        0.89780    0.88480    0.25721    1.000
    C11      C        0.50870    0.09970    0.04370    1.000
    C12      C        0.84110    0.63980    0.47648    1.000
    C13      C        0.12020    0.00260    0.55290    1.000
    C14      C        0.49510    0.95290    0.66613    1.000
    C15      C        0.62020    0.00260    0.94710    1.000
    C16      C        0.23650    0.10800    0.86659    1.000
    C17      C        0.01310    0.99140    0.23826    1.000
    C18      C        0.56120    0.39050    0.70373    1.000
    C19      C        0.13060    0.10270    0.50940    1.000
    C20      C        0.22560    0.69330    0.98720    1.000
    C21      C        0.00490    0.04710    0.16613    1.000
    C22      C        0.09970    0.70380    0.20125    1.000
    C23      C        0.22970    0.69390    0.55629    1.000
    C24      C        0.87860    0.99790    0.11405    1.000
    C25      C        0.27520    0.83550    0.29600    1.000
    C26      C        0.51310    0.99140    0.26174    1.000
    C27      C        0.26350    0.89200    0.36659    1.000
    C28      C        0.37420    0.80110    0.57252    1.000
    C29      C        0.48690    0.00860    0.73826    1.000
    C30      C        0.73650    0.10800    0.63341    1.000
    C31      C        0.99130    0.90030    0.54370    1.000
    C32      C        0.87420    0.80110    0.92748    1.000
    C33      C        0.43880    0.60950    0.29627    1.000
    C34      C        0.27030    0.30610    0.05629    1.000
    C35      C        0.65890    0.36020    0.97648    1.000
    C36      C        0.40030    0.29620    0.70125    1.000
    C37      C        0.72970    0.69390    0.94371    1.000
    C38      C        0.00870    0.09970    0.45630    1.000
    C39      C        0.99510    0.95290    0.83387    1.000
    C40      C        0.22480    0.16450    0.79600    1.000
    C41      C        0.77440    0.30670    0.01280    1.000
    C42      C        0.62140    0.00210    0.61405    1.000
    C43      C        0.90030    0.29620    0.79875    1.000
    C44      C        0.36940    0.89730    0.00940    1.000
    C45      C        0.37980    0.99740    0.05290    1.000
    C46      C        0.76350    0.89200    0.13341    1.000
    C47      C        0.59970    0.70380    0.29875    1.000
    C48      C        0.62580    0.19890    0.42748    1.000
    C49      C        0.60220    0.11520    0.75721    1.000
    C50      C        0.63060    0.10270    0.99060    1.000
    C51      C        0.72560    0.69330    0.51280    1.000
    C52      C        0.12580    0.19890    0.07252    1.000
    C53      C        0.12140    0.00210    0.88595    1.000
    C54      C        0.37860    0.99790    0.38595    1.000
    C55      C        0.34110    0.63980    0.02352    1.000
    C56      C        0.10220    0.11520    0.74279    1.000
    C57      C        0.15890    0.36020    0.52352    1.000
    C58      C        0.87980    0.99740    0.44710    1.000
    C59      C        0.77030    0.30610    0.44371    1.000
    C60      C        0.39780    0.88480    0.24279    1.000
    O1       O        0.64980    0.39939    0.64416    1.000
    O2       O        0.69700    0.67966    0.01703    1.000
    O3       O        0.65830    0.72594    0.21740    1.000
    O4       O        0.84050    0.37030    0.38634    1.000
    O5       O        0.13150    0.44200    0.48622    1.000
    O6       O        0.12640    0.15172    0.15065    1.000
    O7       O        0.37360    0.84828    0.65065    1.000
    O8       O        0.15950    0.62970    0.61366    1.000
    O9       O        0.36850    0.55800    0.98622    1.000
    O10      O        0.34050    0.37030    0.11366    1.000
    O11      O        0.59490    0.45523    0.76506    1.000
    O12      O        0.35020    0.60061    0.35584    1.000
    O13      O        0.09490    0.45523    0.73494    1.000
    O14      O        0.23350    0.80230    0.02227    1.000
    O15      O        0.62640    0.15172    0.34935    1.000
    O16      O        0.73350    0.80230    0.47773    1.000
    O17      O        0.84170    0.27406    0.71740    1.000
    O18      O        0.34170    0.27406    0.78260    1.000
    O19      O        0.63150    0.44200    0.01378    1.000
    O20      O        0.26650    0.19770    0.52227    1.000
    O21      O        0.65950    0.62970    0.88634    1.000
    O22      O        0.87360    0.84828    0.84935    1.000
    O23      O        0.76650    0.19770    0.97773    1.000
    O24      O        0.14980    0.39939    0.85584    1.000
    O25      O        0.09970    0.32850    0.59079    1.000
    O26      O        0.90030    0.67150    0.40921    1.000
    O27      O        0.30300    0.32034    0.98297    1.000
    O28      O        0.85020    0.60061    0.14416    1.000
    O29      O        0.19700    0.67966    0.48297    1.000
    O30      O        0.59970    0.32850    0.90921    1.000
    O31      O        0.40510    0.54477    0.23494    1.000
    O32      O        0.15830    0.72594    0.28260    1.000
    O33      O        0.86850    0.55800    0.51378    1.000
    O34      O        0.90510    0.54477    0.26506    1.000
    O35      O        0.40030    0.67150    0.09079    1.000
    O36      O        0.80300    0.32034    0.51703    1.000
