# CIF file generated by openbabel 3.1.0, see https://openbabel.org
data_I
_chemical_name_common 'image0'
_cell_length_a 9.5213
_cell_length_b 10.5817
_cell_length_c 18.3319
_cell_angle_alpha 95.927
_cell_angle_beta 99.681
_cell_angle_gamma 114.194
_space_group_name_H-M_alt 'P 1'
_space_group_name_Hall 'P 1'
loop_
    _symmetry_equiv_pos_as_xyz
    x,y,z
loop_
    _atom_site_label
    _atom_site_type_symbol
    _atom_site_fract_x
    _atom_site_fract_y
    _atom_site_fract_z
    _atom_site_occupancy
    U1       U        0.29407    0.81252    0.25744    1.000
    U2       U        0.64642    0.69363    0.24719    1.000
    U3       U        0.00028    0.24162    0.24751    1.000
    Ba1      Ba       0.56914    0.31604    0.27747    1.000
    P1       P        0.64802    0.03902    0.32640    1.000
    P2       P        0.94670    0.03636    0.66519    1.000
    P3       P        0.30371    0.48399    0.15877    1.000
    P4       P        0.11606    0.48527    0.80697    1.000
    O1       O        0.58970    0.88730    0.28250    1.000
    O2       O        0.49410    0.05660    0.31920    1.000
    O3       O        0.76990    0.15300    0.29670    1.000
    O4       O        0.11740    0.14650    0.68460    1.000
    O5       O        0.85190    0.06770    0.71840    1.000
    O6       O        0.93170    0.88750    0.66710    1.000
    O7       O        0.36200    0.63690    0.20280    1.000
    O8       O        0.45040    0.45640    0.17970    1.000
    O9       O        0.15430    0.37830    0.17490    1.000
    O10      O        0.14130    0.63380    0.79610    1.000
    O11      O        0.22390    0.44630    0.76500    1.000
    O12      O        0.94470    0.37510    0.78190    1.000
    O13      O        0.22610    0.17010    0.22010    1.000
    C1       C        0.73280    0.04670    0.42320    1.000
    C2       C        0.64080    0.95500    0.46440    1.000
    H1       H        0.53550    0.89390    0.44220    1.000
    C3       C        0.70470    0.95440    0.53740    1.000
    H2       H        0.64170    0.89420    0.56450    1.000
    C4       C        0.86180    0.04270    0.57090    1.000
    C5       C        0.95210    0.13780    0.53210    1.000
    H3       H        0.05650    0.20040    0.55510    1.000
    C6       C        0.88660    0.14020    0.45810    1.000
    H4       H        0.94740    0.20540    0.43240    1.000
    C7       C        0.25930    0.48530    0.05970    1.000
    C8       C        0.37580    0.53690    0.01860    1.000
    H5       H        0.48190    0.57060    0.04270    1.000
    C9       C        0.33560    0.53840    0.94380    1.000
    H6       H        0.41470    0.57350    0.91760    1.000
    C10      C        0.17820    0.48820    0.90630    1.000
    C11      C        0.11140    0.36310    0.93280    1.000
    H7       H        0.08060    0.27090    0.90890    1.000
    C12      C        0.10080    0.42540    0.02290    1.000
    H8       H        0.01330    0.41990    0.04110    1.000
    C13      C        0.05970    0.42820    0.94570    1.000
    C14      C        0.15330    0.36590    0.00980    1.000
    C15      C        0.32960    0.61190    0.03110    1.000
    C16      C        0.29260    0.61370    0.95540    1.000
    H9       H        0.95870    0.42380    0.93870    1.000
    H10      H        0.13610    0.27300    0.01060    1.000
    H11      H        0.40180    0.69470    0.06430    1.000
    H12      H        0.34170    0.69560    0.93700    1.000
    U4       U        0.70593    0.18748    0.74256    1.000
    U5       U        0.35358    0.30637    0.75281    1.000
    U6       U        0.99972    0.75838    0.75249    1.000
    Ba2      Ba       0.43086    0.68396    0.72253    1.000
    P5       P        0.35198    0.96098    0.67360    1.000
    P6       P        0.05330    0.96364    0.33481    1.000
    P7       P        0.69629    0.51601    0.84123    1.000
    P8       P        0.88394    0.51473    0.19303    1.000
    O14      O        0.41030    0.11270    0.71750    1.000
    O15      O        0.50590    0.94340    0.68080    1.000
    O16      O        0.23010    0.84700    0.70330    1.000
    O17      O        0.88260    0.85350    0.31540    1.000
    O18      O        0.14810    0.93230    0.28160    1.000
    O19      O        0.06830    0.11250    0.33290    1.000
    O20      O        0.63800    0.36310    0.79720    1.000
    O21      O        0.54960    0.54360    0.82030    1.000
    O22      O        0.84570    0.62170    0.82510    1.000
    O23      O        0.85870    0.36620    0.20390    1.000
    O24      O        0.77610    0.55370    0.23500    1.000
    O25      O        0.05530    0.62490    0.21810    1.000
    O26      O        0.77390    0.82990    0.77990    1.000
    C17      C        0.26720    0.95330    0.57680    1.000
    C18      C        0.35920    0.04500    0.53560    1.000
    H13      H        0.46450    0.10610    0.55780    1.000
    C19      C        0.29530    0.04560    0.46260    1.000
    H14      H        0.35830    0.10580    0.43550    1.000
    C20      C        0.13820    0.95730    0.42910    1.000
    C21      C        0.04790    0.86220    0.46790    1.000
    H15      H        0.94350    0.79960    0.44490    1.000
    C22      C        0.11340    0.85980    0.54190    1.000
    H16      H        0.05260    0.79460    0.56760    1.000
    C23      C        0.74070    0.51470    0.94030    1.000
    C24      C        0.62420    0.46310    0.98140    1.000
    H17      H        0.51810    0.42940    0.95730    1.000
    C25      C        0.66440    0.46160    0.05620    1.000
    H18      H        0.58530    0.42650    0.08240    1.000
    C26      C        0.82180    0.51180    0.09370    1.000
    C27      C        0.88860    0.63690    0.06720    1.000
    H19      H        0.91940    0.72910    0.09110    1.000
    C28      C        0.89920    0.57460    0.97710    1.000
    H20      H        0.98670    0.58010    0.95890    1.000
    C29      C        0.94030    0.57180    0.05430    1.000
    C30      C        0.84670    0.63410    0.99020    1.000
    C31      C        0.67040    0.38810    0.96890    1.000
    C32      C        0.70740    0.38630    0.04460    1.000
    H21      H        0.04130    0.57620    0.06130    1.000
    H22      H        0.86390    0.72700    0.98940    1.000
    H23      H        0.59820    0.30530    0.93570    1.000
    H24      H        0.65830    0.30440    0.06300    1.000
