# CIF file generated by openbabel 3.1.0, see https://openbabel.org
data_I
_chemical_name_common 'image0'
_cell_length_a 13.9971
_cell_length_b 14.5785
_cell_length_c 14.7621
_cell_angle_alpha 97.325
_cell_angle_beta 98.477
_cell_angle_gamma 100.96
_space_group_name_H-M_alt 'P 1'
_space_group_name_Hall 'P 1'
loop_
    _symmetry_equiv_pos_as_xyz
    x,y,z
loop_
    _atom_site_label
    _atom_site_type_symbol
    _atom_site_fract_x
    _atom_site_fract_y
    _atom_site_fract_z
    _atom_site_occupancy
    W1       W        0.32531    0.48413    0.69041    1.000
    W2       W        0.24966    0.49383    0.89671    1.000
    W3       W        0.10764    0.54461    0.71119    1.000
    W4       W        0.24895    0.71866    0.03445    1.000
    W5       W        0.10296    0.77630    0.85517    1.000
    W6       W        0.32131    0.92079    0.95451    1.000
    W7       W        0.25529    0.88662    0.70047    1.000
    W8       W        0.26376    0.68075    0.57466    1.000
    W9       W        0.48034    0.83265    0.68548    1.000
    Co1      Co       0.48130    0.65719    0.00064    1.000
    Co2      Co       0.55532    0.65505    0.80748    1.000
    Co3      Co       0.55445    0.84427    0.92390    1.000
    Co4      Co       0.26917    0.30875    0.03876    1.000
    Co5      Co       0.65440    0.87310    0.53032    1.000
    Si1      Si       0.33383    0.70845    0.82207    1.000
    O1       O        0.44890    0.53860    0.74450    1.000
    O2       O        0.28920    0.42220    0.79150    1.000
    O3       O        0.32000    0.57950    0.60700    1.000
    O4       O        0.17800    0.46260    0.65000    1.000
    O5       O        0.27480    0.59680    0.78950    1.000
    O6       O        0.21060    0.39990    0.95450    1.000
    O7       O        0.37500    0.53710    0.94960    1.000
    O8       O        0.20760    0.59350    0.96480    1.000
    O9       O        0.11850    0.47730    0.81100    1.000
    O10      O        0.08180    0.64850    0.79010    1.000
    O11      O        0.15470    0.63140    0.63320    1.000
    O12      O        0.20870    0.70200    0.13750    1.000
    O13      O        0.37400    0.70790    0.05610    1.000
    O14      O        0.28280    0.85560    0.05360    1.000
    O15      O        0.11330    0.73280    0.96810    1.000
    O16      O        0.27210    0.76220    0.89140    1.000
    O17      O        0.17150    0.89760    0.91580    1.000
    O18      O        0.15030    0.81620    0.74700    1.000
    O19      O        0.33760    0.03650    0.01100    1.000
    O20      O        0.44270    0.90110    0.96850    1.000
    O21      O        0.31610    0.93860    0.82740    1.000
    O22      O        0.38210    0.91800    0.66770    1.000
    O23      O        0.21300    0.79690    0.58880    1.000
    O24      O        0.33610    0.75950    0.72830    1.000
    O25      O        0.38490    0.75370    0.56640    1.000
    O26      O        0.56250    0.89040    0.62070    1.000
    O27      O        0.52600    0.89330    0.80030    1.000
    O28      O        0.52430    0.72560    0.69810    1.000
    O29      O        0.51920    0.60860    0.12130    1.000
    O30      O        0.41390    0.38940    0.06500    1.000
    O31      O        0.42890    0.21100    0.95040    1.000
    O32      O        0.44690    0.71450    0.87380    1.000
    O33      O        0.34470    0.22860    0.11910    1.000
    O34      O        0.34550    0.39590    0.26840    1.000
    O35      O        0.27460    0.23250    0.91080    1.000
    O36      O        0.22180    0.38040    0.14900    1.000
    O37      O        0.23100    0.11900    0.55100    1.000
    O38      O        0.28400    0.19390    0.57300    1.000
    O39      O        0.55600    0.75080    0.45680    1.000
    C1       C        0.25840    0.39430    0.23490    1.000
    C2       C        0.18550    0.41140    0.30010    1.000
    H1       H        0.15920    0.46730    0.28590    1.000
    H2       H        0.12920    0.35610    0.28650    1.000
    C3       C        0.22670    0.42680    0.40020    1.000
    H3       H        0.27740    0.48640    0.41680    1.000
    H4       H        0.25860    0.37410    0.41500    1.000
    N1       N        0.14530    0.43200    0.45530    1.000
    H5       H        0.10730    0.47080    0.43240    1.000
    H6       H        0.17200    0.45520    0.51580    1.000
    H7       H        0.10730    0.37300    0.45110    1.000
    C4       C        0.35000    0.20670    0.89120    1.000
    C5       C        0.35130    0.16910    0.79240    1.000
    H8       H        0.32580    0.21230    0.75300    1.000
    H9       H        0.30450    0.10700    0.77550    1.000
    C6       C        0.45100    0.15620    0.76780    1.000
    H10      H        0.49760    0.21840    0.78000    1.000
    H11      H        0.44210    0.13110    0.70090    1.000
    N2       N        0.49500    0.08760    0.82500    1.000
    H12      H        0.50830    0.11310    0.88630    1.000
    H13      H        0.55180    0.07790    0.80610    1.000
    H14      H        0.45080    0.03140    0.81640    1.000
    K1       K        0.00030    0.63620    0.08900    1.000
    K2       K        0.51700    0.59270    0.55430    1.000
    K3       K        0.99010    0.74170    0.57750    1.000
    K4       K        0.45150    0.61650    0.28470    1.000
    O40      O        0.94700    0.54050    0.90830    1.000
    W10      W        0.67469    0.51587    0.30959    1.000
    W11      W        0.75034    0.50617    0.10329    1.000
    W12      W        0.89236    0.45539    0.28881    1.000
    W13      W        0.75105    0.28134    0.96555    1.000
    W14      W        0.89704    0.22370    0.14483    1.000
    W15      W        0.67869    0.07921    0.04549    1.000
    W16      W        0.74471    0.11338    0.29953    1.000
    W17      W        0.73624    0.31925    0.42534    1.000
    W18      W        0.51966    0.16735    0.31452    1.000
    Co6      Co       0.51870    0.34281    0.99936    1.000
    Co7      Co       0.44468    0.34495    0.19252    1.000
    Co8      Co       0.44555    0.15573    0.07610    1.000
    Co9      Co       0.73083    0.69125    0.96124    1.000
    Co10     Co       0.34560    0.12690    0.46968    1.000
    Si2      Si       0.66617    0.29155    0.17793    1.000
    O41      O        0.55110    0.46140    0.25550    1.000
    O42      O        0.71080    0.57780    0.20850    1.000
    O43      O        0.68000    0.42050    0.39300    1.000
    O44      O        0.82200    0.53740    0.35000    1.000
    O45      O        0.72520    0.40320    0.21050    1.000
    O46      O        0.78940    0.60010    0.04550    1.000
    O47      O        0.62500    0.46290    0.05040    1.000
    O48      O        0.79240    0.40650    0.03520    1.000
    O49      O        0.88150    0.52270    0.18900    1.000
    O50      O        0.91820    0.35150    0.20990    1.000
    O51      O        0.84530    0.36860    0.36680    1.000
    O52      O        0.79130    0.29800    0.86250    1.000
    O53      O        0.62600    0.29210    0.94390    1.000
    O54      O        0.71720    0.14440    0.94640    1.000
    O55      O        0.88670    0.26720    0.03190    1.000
    O56      O        0.72790    0.23780    0.10860    1.000
    O57      O        0.82850    0.10240    0.08420    1.000
    O58      O        0.84970    0.18380    0.25300    1.000
    O59      O        0.66240    0.96350    0.98900    1.000
    O60      O        0.55730    0.09890    0.03150    1.000
    O61      O        0.68390    0.06140    0.17260    1.000
    O62      O        0.61790    0.08200    0.33230    1.000
    O63      O        0.78700    0.20310    0.41120    1.000
    O64      O        0.66390    0.24050    0.27170    1.000
    O65      O        0.61510    0.24630    0.43360    1.000
    O66      O        0.43750    0.10960    0.37930    1.000
    O67      O        0.47400    0.10670    0.19970    1.000
    O68      O        0.47570    0.27440    0.30190    1.000
    O69      O        0.48080    0.39140    0.87870    1.000
    O70      O        0.58610    0.61060    0.93500    1.000
    O71      O        0.57110    0.78900    0.04960    1.000
    O72      O        0.55310    0.28550    0.12620    1.000
    O73      O        0.65530    0.77140    0.88090    1.000
    O74      O        0.65450    0.60410    0.73160    1.000
    O75      O        0.72540    0.76750    0.08920    1.000
    O76      O        0.77820    0.61960    0.85100    1.000
    O77      O        0.76900    0.88100    0.44900    1.000
    O78      O        0.71600    0.80610    0.42700    1.000
    O79      O        0.44400    0.24920    0.54320    1.000
    C7       C        0.74160    0.60570    0.76510    1.000
    C8       C        0.81450    0.58860    0.69990    1.000
    H15      H        0.84080    0.53270    0.71410    1.000
    H16      H        0.87080    0.64390    0.71350    1.000
    C9       C        0.77330    0.57320    0.59980    1.000
    H17      H        0.72260    0.51360    0.58320    1.000
    H18      H        0.74140    0.62590    0.58500    1.000
    N3       N        0.85470    0.56800    0.54470    1.000
    H19      H        0.89270    0.52920    0.56760    1.000
    H20      H        0.82800    0.54480    0.48420    1.000
    H21      H        0.89270    0.62700    0.54890    1.000
    C10      C        0.65000    0.79330    0.10880    1.000
    C11      C        0.64870    0.83090    0.20760    1.000
    H22      H        0.67420    0.78770    0.24700    1.000
    H23      H        0.69550    0.89300    0.22450    1.000
    C12      C        0.54900    0.84380    0.23220    1.000
    H24      H        0.50240    0.78160    0.22000    1.000
    H25      H        0.55790    0.86890    0.29910    1.000
    N4       N        0.50500    0.91240    0.17500    1.000
    H26      H        0.49170    0.88690    0.11370    1.000
    H27      H        0.44820    0.92210    0.19390    1.000
    H28      H        0.54920    0.96860    0.18360    1.000
    K5       K        0.99970    0.36380    0.91100    1.000
    K6       K        0.48300    0.40730    0.44570    1.000
    K7       K        0.00990    0.25830    0.42250    1.000
    K8       K        0.54850    0.38350    0.71530    1.000
    O80      O        0.05300    0.45950    0.09170    1.000
