# CIF file generated by openbabel 3.1.0, see https://openbabel.org
data_I
_chemical_name_common 'image0'
_cell_length_a 8.9147
_cell_length_b 12.715
_cell_length_c 21.226
_cell_angle_alpha 90.21
_cell_angle_beta 94.14
_cell_angle_gamma 91.29
_space_group_name_H-M_alt 'P 1'
_space_group_name_Hall 'P 1'
loop_
    _symmetry_equiv_pos_as_xyz
    x,y,z
loop_
    _atom_site_label
    _atom_site_type_symbol
    _atom_site_fract_x
    _atom_site_fract_y
    _atom_site_fract_z
    _atom_site_occupancy
    O1       O        0.16700    0.42800    0.27670    1.000
    Mn1      Mn       0.60220    0.27080    0.23740    1.000
    Mn2      Mn       0.97410    0.36080    0.24690    1.000
    Mn3      Mn       0.27950    0.14510    0.26260    1.000
    O2       O        0.51700    0.12600    0.28110    1.000
    O3       O        0.73900    0.07500    0.31410    1.000
    O4       O        0.09600    0.66400    0.65600    1.000
    O5       O        0.33800    0.68100    0.67190    1.000
    O6       O        0.35900    0.31400    0.26540    1.000
    O7       O        0.48200    0.74900    0.29110    1.000
    O8       O        0.57000    0.84900    0.48860    1.000
    O9       O        0.31700    0.55000    0.45750    1.000
    O10      O        0.83600    0.23200    0.20420    1.000
    O11      O        0.05300    0.18900    0.24040    1.000
    O12      O        0.81500    0.83700    0.20730    1.000
    O13      O        0.76000    0.02500    0.02970    1.000
    O14      O        0.80400    0.66900    0.01960    1.000
    O15      O        0.46200    0.77100    0.85570    1.000
    O16      O        0.66500    0.86600    0.83550    1.000
    O17      O        0.62500    0.42500    0.19230    1.000
    O18      O        0.83000    0.48800    0.23230    1.000
    O19      O        0.20600    0.15600    0.36250    1.000
    H1       H        0.11520    0.16520    0.36130    1.000
    O20      O        0.24000    0.97500    0.25800    1.000
    H2       H        0.19220    0.95620    0.28730    1.000
    O21      O        0.07100    0.37700    0.14800    1.000
    H3       H        0.11200    0.43490    0.14520    1.000
    C1       C        0.60100    0.06700    0.31530    1.000
    C2       C        0.52400    0.98500    0.35600    1.000
    H4       H        0.51000    0.01410    0.39710    1.000
    H5       H        0.42640    0.96500    0.33580    1.000
    C3       C        0.62200    0.88900    0.36300    1.000
    H6       H        0.65590    0.86910    0.32180    1.000
    H7       H        0.71050    0.90470    0.39080    1.000
    C4       C        0.51900    0.78800    0.45400    1.000
    C5       C        0.46900    0.73400    0.34700    1.000
    C6       C        0.38000    0.62700    0.43800    1.000
    C7       C        0.30700    0.58200    0.33200    1.000
    H8       H        0.27790    0.61930    0.29340    1.000
    H9       H        0.21620    0.56030    0.35110    1.000
    C8       C        0.39300    0.48100    0.31400    1.000
    H10      H        0.47250    0.50190    0.28760    1.000
    H11      H        0.44060    0.45220    0.35270    1.000
    C9       C        0.30100    0.40100    0.28260    1.000
    C10      C        0.42200    0.68000    0.54390    1.000
    H12      H        0.49870    0.72060    0.56860    1.000
    H13      H        0.43900    0.60640    0.55280    1.000
    C11      C        0.26400    0.70800    0.56900    1.000
    H14      H        0.25150    0.78330    0.56300    1.000
    H15      H        0.18700    0.67320    0.54090    1.000
    C12      C        0.23000    0.68200    0.63730    1.000
    C13      C        0.94200    0.16600    0.21120    1.000
    C14      C        0.93600    0.05700    0.18200    1.000
    H16      H        0.01790    0.01270    0.18010    1.000
    C15      C        0.78600    0.03100    0.15700    1.000
    H17      H        0.74660    0.08790    0.13040    1.000
    H18      H        0.72010    0.02050    0.19090    1.000
    C16      C        0.77800    0.94200    0.05500    1.000
    C17      C        0.80900    0.84100    0.15100    1.000
    C18      C        0.80100    0.75000    0.05000    1.000
    C19      C        0.75400    0.85000    0.95500    1.000
    H19      H        0.81300    0.79710    0.93590    1.000
    H20      H        0.78160    0.91850    0.93960    1.000
    C20      C        0.59200    0.82800    0.94300    1.000
    H21      H        0.51960    0.81950    0.97190    1.000
    C21      C        0.57100    0.82100    0.87200    1.000
    C22      C        0.84100    0.64900    0.14500    1.000
    H22      H        0.91200    0.65850    0.18180    1.000
    H23      H        0.88420    0.60060    0.11640    1.000
    C23      C        0.69300    0.60000    0.16700    1.000
    H24      H        0.64900    0.64900    0.19500    1.000
    H25      H        0.62220    0.59000    0.13000    1.000
    C24      C        0.71800    0.49500    0.20000    1.000
    N1       N        0.39100    0.65000    0.37320    1.000
    N2       N        0.44300    0.69800    0.47540    1.000
    N3       N        0.53400    0.79800    0.38880    1.000
    N4       N        0.79500    0.93400    0.11960    1.000
    N5       N        0.81600    0.75100    0.11390    1.000
    N6       N        0.77800    0.84700    0.02280    1.000
    O22      O        0.83300    0.57200    0.72330    1.000
    Mn4      Mn       0.39780    0.72920    0.76260    1.000
    Mn5      Mn       0.02590    0.63920    0.75310    1.000
    Mn6      Mn       0.72050    0.85490    0.73740    1.000
    O23      O        0.48300    0.87400    0.71890    1.000
    O24      O        0.26100    0.92500    0.68590    1.000
    O25      O        0.90400    0.33600    0.34400    1.000
    O26      O        0.66200    0.31900    0.32810    1.000
    O27      O        0.64100    0.68600    0.73460    1.000
    O28      O        0.51800    0.25100    0.70890    1.000
    O29      O        0.43000    0.15100    0.51140    1.000
    O30      O        0.68300    0.45000    0.54250    1.000
    O31      O        0.16400    0.76800    0.79580    1.000
    O32      O        0.94700    0.81100    0.75960    1.000
    O33      O        0.18500    0.16300    0.79270    1.000
    O34      O        0.24000    0.97500    0.97030    1.000
    O35      O        0.19600    0.33100    0.98040    1.000
    O36      O        0.53800    0.22900    0.14430    1.000
    O37      O        0.33500    0.13400    0.16450    1.000
    O38      O        0.37500    0.57500    0.80770    1.000
    O39      O        0.17000    0.51200    0.76770    1.000
    O40      O        0.79400    0.84400    0.63750    1.000
    H26      H        0.88480    0.83480    0.63870    1.000
    O41      O        0.76000    0.02500    0.74200    1.000
    H27      H        0.80780    0.04380    0.71270    1.000
    O42      O        0.92900    0.62300    0.85200    1.000
    H28      H        0.88800    0.56510    0.85480    1.000
    C25      C        0.39900    0.93300    0.68470    1.000
    C26      C        0.47600    0.01500    0.64400    1.000
    H29      H        0.49000    0.98590    0.60290    1.000
    H30      H        0.57360    0.03500    0.66420    1.000
    C27      C        0.37800    0.11100    0.63700    1.000
    H31      H        0.34410    0.13090    0.67820    1.000
    H32      H        0.28950    0.09530    0.60920    1.000
    C28      C        0.48100    0.21200    0.54600    1.000
    C29      C        0.53100    0.26600    0.65300    1.000
    C30      C        0.62000    0.37300    0.56200    1.000
    C31      C        0.69300    0.41800    0.66800    1.000
    H33      H        0.72210    0.38070    0.70660    1.000
    H34      H        0.78380    0.43970    0.64890    1.000
    C32      C        0.60700    0.51900    0.68600    1.000
    H35      H        0.52750    0.49810    0.71240    1.000
    H36      H        0.55940    0.54780    0.64730    1.000
    C33      C        0.69900    0.59900    0.71740    1.000
    C34      C        0.57800    0.32000    0.45610    1.000
    H37      H        0.50130    0.27940    0.43140    1.000
    H38      H        0.56100    0.39360    0.44720    1.000
    C35      C        0.73600    0.29200    0.43100    1.000
    H39      H        0.74850    0.21670    0.43700    1.000
    H40      H        0.81300    0.32680    0.45910    1.000
    C36      C        0.77000    0.31800    0.36270    1.000
    C37      C        0.05800    0.83400    0.78880    1.000
    C38      C        0.06400    0.94300    0.81800    1.000
    H41      H        0.98210    0.98730    0.81990    1.000
    C39      C        0.21400    0.96900    0.84300    1.000
    H42      H        0.25340    0.91210    0.86960    1.000
    H43      H        0.27990    0.97950    0.80910    1.000
    C40      C        0.22200    0.05800    0.94500    1.000
    C41      C        0.19100    0.15900    0.84900    1.000
    C42      C        0.19900    0.25000    0.95000    1.000
    C43      C        0.24600    0.15000    0.04500    1.000
    H44      H        0.18700    0.20290    0.06410    1.000
    H45      H        0.21840    0.08150    0.06040    1.000
    C44      C        0.40800    0.17200    0.05700    1.000
    H46      H        0.48040    0.18050    0.02810    1.000
    C45      C        0.42900    0.17900    0.12800    1.000
    C46      C        0.15900    0.35100    0.85500    1.000
    H47      H        0.08800    0.34150    0.81820    1.000
    H48      H        0.11580    0.39940    0.88360    1.000
    C47      C        0.30700    0.40000    0.83300    1.000
    H49      H        0.35100    0.35100    0.80500    1.000
    H50      H        0.37780    0.41000    0.87000    1.000
    C48      C        0.28200    0.50500    0.80000    1.000
    N7       N        0.60900    0.35000    0.62680    1.000
    N8       N        0.55700    0.30200    0.52460    1.000
    N9       N        0.46600    0.20200    0.61120    1.000
    N10      N        0.20500    0.06600    0.88040    1.000
    N11      N        0.18400    0.24900    0.88610    1.000
    N12      N        0.22200    0.15300    0.97720    1.000
