# CIF file generated by openbabel 3.1.0, see https://openbabel.org
data_I
_chemical_name_common 'image0'
_cell_length_a 16.379
_cell_length_b 16.361
_cell_length_c 28.999
_cell_angle_alpha 90
_cell_angle_beta 90
_cell_angle_gamma 90
_space_group_name_H-M_alt 'P 1'
_space_group_name_Hall 'P 1'
loop_
    _symmetry_equiv_pos_as_xyz
    x,y,z
loop_
    _atom_site_label
    _atom_site_type_symbol
    _atom_site_fract_x
    _atom_site_fract_y
    _atom_site_fract_z
    _atom_site_occupancy
    O1       O        0.41471    0.71506    0.72163    1.000
    C1       C        0.44061    0.64204    0.72849    1.000
    C2       C        0.39975    0.59785    0.76793    1.000
    C3       C        0.29652    0.59312    0.82711    1.000
    C4       C        0.42830    0.52215    0.78220    1.000
    H1       H        0.47250    0.49840    0.76710    1.000
    C5       C        0.32515    0.51764    0.84116    1.000
    H2       H        0.30010    0.49080    0.86560    1.000
    C6       C        0.39151    0.48150    0.81880    1.000
    C7       C        0.42168    0.39983    0.83397    1.000
    O2       O        0.48483    0.37227    0.81348    1.000
    O3       O        0.38343    0.36317    0.86509    1.000
    O4       O        0.17972    0.59221    0.87606    1.000
    Zn1      Zn       0.54027    0.15991    0.92001    1.000
    Zn2      Zn       0.54947    0.27750    0.83072    1.000
    Zn3      Zn       0.37289    0.24667    0.88234    1.000
    O5       O        0.35022    0.24145    0.94835    1.000
    O6       O        0.21953    0.71053    0.84632    1.000
    O7       O        0.48011    0.19942    0.86589    1.000
    O8       O        0.42905    0.95061    0.07404    1.000
    C8       C        0.23347    0.16516    0.07123    1.000
    O9       O        0.46100    0.17183    0.97040    1.000
    C9       C        0.26333    0.09348    0.09137    1.000
    H3       H        0.23630    0.07060    0.11640    1.000
    C10      C        0.34413    0.16251    0.01659    1.000
    C11      C        0.27319    0.19836    0.03324    1.000
    H4       H        0.25220    0.24470    0.01890    1.000
    C12      C        0.37360    0.09270    0.03740    1.000
    H5       H        0.42170    0.06940    0.02660    1.000
    C13      C        0.38813    0.19515    0.97512    1.000
    C14      C        0.33329    0.05636    0.07406    1.000
    O10      O        0.49426    0.60692    0.70655    1.000
    C15      C        0.33400    0.63245    0.79061    1.000
    H6       H        0.31460    0.68320    0.78110    1.000
    O11      O        0.32675    0.94001    0.12317    1.000
    C16      C        0.22637    0.63272    0.85205    1.000
    C17      C        0.36361    0.97582    0.09318    1.000
    C18      C        0.15954    0.20638    0.09106    1.000
    O12      O        0.12666    0.26130    0.06701    1.000
    O13      O        0.13613    0.18309    0.13019    1.000
    H7       H        0.48100    0.16530    0.84470    1.000
    O14      O        0.08529    0.28494    0.22163    1.000
    C19      C        0.05939    0.35796    0.22849    1.000
    C20      C        0.10025    0.40215    0.26793    1.000
    C21      C        0.20348    0.40688    0.32711    1.000
    C22      C        0.07170    0.47785    0.28220    1.000
    H8       H        0.02750    0.50160    0.26710    1.000
    C23      C        0.17485    0.48236    0.34116    1.000
    H9       H        0.19990    0.50920    0.36560    1.000
    C24      C        0.10849    0.51850    0.31880    1.000
    C25      C        0.07832    0.60017    0.33397    1.000
    O15      O        0.01517    0.62773    0.31348    1.000
    O16      O        0.11657    0.63683    0.36509    1.000
    O17      O        0.32028    0.40779    0.37606    1.000
    Zn4      Zn       0.95973    0.84009    0.42001    1.000
    Zn5      Zn       0.95052    0.72250    0.33072    1.000
    Zn6      Zn       0.12711    0.75333    0.38234    1.000
    O18      O        0.14978    0.75855    0.44835    1.000
    O19      O        0.28047    0.28947    0.34632    1.000
    O20      O        0.01989    0.80058    0.36589    1.000
    O21      O        0.07095    0.04939    0.57404    1.000
    C26      C        0.26653    0.83484    0.57123    1.000
    O22      O        0.03900    0.82817    0.47040    1.000
    C27      C        0.23667    0.90652    0.59137    1.000
    H10      H        0.26370    0.92940    0.61640    1.000
    C28      C        0.15587    0.83749    0.51659    1.000
    C29      C        0.22681    0.80164    0.53324    1.000
    H11      H        0.24780    0.75530    0.51890    1.000
    C30      C        0.12640    0.90730    0.53740    1.000
    H12      H        0.07830    0.93060    0.52660    1.000
    C31      C        0.11187    0.80485    0.47512    1.000
    C32      C        0.16671    0.94364    0.57406    1.000
    O23      O        0.00574    0.39308    0.20655    1.000
    C33      C        0.16600    0.36755    0.29061    1.000
    H13      H        0.18540    0.31680    0.28110    1.000
    O24      O        0.17325    0.05999    0.62317    1.000
    C34      C        0.27363    0.36728    0.35205    1.000
    C35      C        0.13639    0.02418    0.59318    1.000
    C36      C        0.34046    0.79362    0.59106    1.000
    O25      O        0.37334    0.73870    0.56701    1.000
    O26      O        0.36387    0.81691    0.63019    1.000
    H14      H        0.01900    0.83470    0.34470    1.000
    O27      O        0.58529    0.21506    0.77837    1.000
    C37      C        0.55939    0.14204    0.77151    1.000
    C38      C        0.60025    0.09785    0.73207    1.000
    C39      C        0.70348    0.09312    0.67289    1.000
    C40      C        0.57170    0.02215    0.71780    1.000
    H15      H        0.52750    0.99840    0.73290    1.000
    C41      C        0.67485    0.01764    0.65884    1.000
    H16      H        0.69990    0.99080    0.63440    1.000
    C42      C        0.60849    0.98150    0.68120    1.000
    C43      C        0.57832    0.89983    0.66603    1.000
    O28      O        0.51517    0.87227    0.68652    1.000
    O29      O        0.61657    0.86317    0.63491    1.000
    O30      O        0.82028    0.09221    0.62394    1.000
    Zn7      Zn       0.45973    0.65991    0.57999    1.000
    Zn8      Zn       0.45052    0.77750    0.66928    1.000
    Zn9      Zn       0.62711    0.74667    0.61766    1.000
    O31      O        0.64978    0.74145    0.55165    1.000
    O32      O        0.78047    0.21053    0.65368    1.000
    O33      O        0.51989    0.69942    0.63411    1.000
    O34      O        0.57095    0.45061    0.42596    1.000
    C44      C        0.76653    0.66516    0.42877    1.000
    O35      O        0.53900    0.67183    0.52960    1.000
    C45      C        0.73667    0.59348    0.40863    1.000
    H17      H        0.76370    0.57060    0.38360    1.000
    C46      C        0.65587    0.66251    0.48341    1.000
    C47      C        0.72681    0.69836    0.46676    1.000
    H18      H        0.74780    0.74470    0.48110    1.000
    C48      C        0.62640    0.59270    0.46260    1.000
    H19      H        0.57830    0.56940    0.47340    1.000
    C49      C        0.61187    0.69515    0.52488    1.000
    C50      C        0.66671    0.55636    0.42594    1.000
    O36      O        0.50574    0.10692    0.79345    1.000
    C51      C        0.66600    0.13245    0.70939    1.000
    H20      H        0.68540    0.18320    0.71890    1.000
    O37      O        0.67325    0.44001    0.37683    1.000
    C52      C        0.77363    0.13272    0.64795    1.000
    C53      C        0.63639    0.47582    0.40682    1.000
    C54      C        0.84046    0.70638    0.40894    1.000
    O38      O        0.87334    0.76130    0.43299    1.000
    O39      O        0.86387    0.68309    0.36981    1.000
    H21      H        0.51900    0.66530    0.65530    1.000
    O40      O        0.91471    0.78494    0.27837    1.000
    C55      C        0.94061    0.85796    0.27151    1.000
    C56      C        0.89975    0.90215    0.23207    1.000
    C57      C        0.79652    0.90688    0.17289    1.000
    C58      C        0.92830    0.97785    0.21780    1.000
    H22      H        0.97250    0.00160    0.23290    1.000
    C59      C        0.82515    0.98236    0.15884    1.000
    H23      H        0.80010    0.00920    0.13440    1.000
    C60      C        0.89151    0.01850    0.18120    1.000
    C61      C        0.92168    0.10017    0.16603    1.000
    O41      O        0.98483    0.12773    0.18652    1.000
    O42      O        0.88343    0.13683    0.13491    1.000
    O43      O        0.67972    0.90779    0.12394    1.000
    Zn10     Zn       0.04027    0.34009    0.07999    1.000
    Zn11     Zn       0.04947    0.22250    0.16928    1.000
    Zn12     Zn       0.87289    0.25333    0.11766    1.000
    O44      O        0.85022    0.25855    0.05165    1.000
    O45      O        0.71953    0.78947    0.15368    1.000
    O46      O        0.98011    0.30058    0.13411    1.000
    O47      O        0.92905    0.54939    0.92596    1.000
    C62      C        0.73347    0.33484    0.92877    1.000
    O48      O        0.96100    0.32817    0.02960    1.000
    C63      C        0.76333    0.40652    0.90863    1.000
    H24      H        0.73630    0.42940    0.88360    1.000
    C64      C        0.84413    0.33749    0.98341    1.000
    C65      C        0.77319    0.30164    0.96676    1.000
    H25      H        0.75220    0.25530    0.98110    1.000
    C66      C        0.87360    0.40730    0.96260    1.000
    H26      H        0.92170    0.43060    0.97340    1.000
    C67      C        0.88813    0.30485    0.02488    1.000
    C68      C        0.83329    0.44364    0.92594    1.000
    O49      O        0.99426    0.89308    0.29345    1.000
    C69      C        0.83400    0.86755    0.20939    1.000
    H27      H        0.81460    0.81680    0.21890    1.000
    O50      O        0.82675    0.55999    0.87683    1.000
    C70      C        0.72637    0.86728    0.14795    1.000
    C71      C        0.86361    0.52418    0.90682    1.000
    C72      C        0.65954    0.29362    0.90894    1.000
    O51      O        0.62666    0.23870    0.93299    1.000
    O52      O        0.63613    0.31691    0.86981    1.000
    H28      H        0.98100    0.33470    0.15530    1.000
    O53      O        0.58529    0.28494    0.27837    1.000
    C73      C        0.55939    0.35796    0.27151    1.000
    C74      C        0.60025    0.40215    0.23207    1.000
    C75      C        0.70348    0.40688    0.17289    1.000
    C76      C        0.57170    0.47785    0.21780    1.000
    H29      H        0.52750    0.50160    0.23290    1.000
    C77      C        0.67485    0.48236    0.15884    1.000
    H30      H        0.69990    0.50920    0.13440    1.000
    C78      C        0.60849    0.51850    0.18120    1.000
    C79      C        0.57832    0.60017    0.16603    1.000
    O54      O        0.51517    0.62773    0.18652    1.000
    O55      O        0.61657    0.63683    0.13491    1.000
    O56      O        0.82028    0.40779    0.12394    1.000
    Zn13     Zn       0.45973    0.84009    0.07999    1.000
    Zn14     Zn       0.45052    0.72250    0.16928    1.000
    Zn15     Zn       0.62711    0.75333    0.11766    1.000
    O57      O        0.64978    0.75855    0.05165    1.000
    O58      O        0.78047    0.28947    0.15368    1.000
    O59      O        0.51989    0.80058    0.13411    1.000
    O60      O        0.57095    0.04939    0.92596    1.000
    C80      C        0.76653    0.83484    0.92877    1.000
    O61      O        0.53900    0.82817    0.02960    1.000
    C81      C        0.73667    0.90652    0.90863    1.000
    H31      H        0.76370    0.92940    0.88360    1.000
    C82      C        0.65587    0.83749    0.98341    1.000
    C83      C        0.72681    0.80164    0.96676    1.000
    H32      H        0.74780    0.75530    0.98110    1.000
    C84      C        0.62640    0.90730    0.96260    1.000
    H33      H        0.57830    0.93060    0.97340    1.000
    C85      C        0.61187    0.80485    0.02488    1.000
    C86      C        0.66671    0.94364    0.92594    1.000
    O62      O        0.50574    0.39308    0.29345    1.000
    C87      C        0.66600    0.36755    0.20939    1.000
    H34      H        0.68540    0.31680    0.21890    1.000
    O63      O        0.67325    0.05999    0.87683    1.000
    C88      C        0.77363    0.36728    0.14795    1.000
    C89      C        0.63639    0.02418    0.90682    1.000
    C90      C        0.84046    0.79362    0.90894    1.000
    O64      O        0.87334    0.73870    0.93299    1.000
    O65      O        0.86387    0.81691    0.86981    1.000
    H35      H        0.51900    0.83470    0.15530    1.000
    O66      O        0.91471    0.71506    0.77837    1.000
    C91      C        0.94061    0.64204    0.77151    1.000
    C92      C        0.89975    0.59785    0.73207    1.000
    C93      C        0.79652    0.59312    0.67289    1.000
    C94      C        0.92830    0.52215    0.71780    1.000
    H36      H        0.97250    0.49840    0.73290    1.000
    C95      C        0.82515    0.51764    0.65884    1.000
    H37      H        0.80010    0.49080    0.63440    1.000
    C96      C        0.89151    0.48150    0.68120    1.000
    C97      C        0.92168    0.39983    0.66603    1.000
    O67      O        0.98483    0.37227    0.68652    1.000
    O68      O        0.88343    0.36317    0.63491    1.000
    O69      O        0.67972    0.59221    0.62394    1.000
    Zn16     Zn       0.04027    0.15991    0.57999    1.000
    Zn17     Zn       0.04947    0.27750    0.66928    1.000
    Zn18     Zn       0.87289    0.24667    0.61766    1.000
    O70      O        0.85022    0.24145    0.55165    1.000
    O71      O        0.71953    0.71053    0.65368    1.000
    O72      O        0.98011    0.19942    0.63411    1.000
    O73      O        0.92905    0.95061    0.42596    1.000
    C98      C        0.73347    0.16516    0.42877    1.000
    O74      O        0.96100    0.17183    0.52960    1.000
    C99      C        0.76333    0.09348    0.40863    1.000
    H38      H        0.73630    0.07060    0.38360    1.000
    C100     C        0.84413    0.16251    0.48341    1.000
    C101     C        0.77319    0.19836    0.46676    1.000
    H39      H        0.75220    0.24470    0.48110    1.000
    C102     C        0.87360    0.09270    0.46260    1.000
    H40      H        0.92170    0.06940    0.47340    1.000
    C103     C        0.88813    0.19515    0.52488    1.000
    C104     C        0.83329    0.05636    0.42594    1.000
    O75      O        0.99426    0.60692    0.79345    1.000
    C105     C        0.83400    0.63245    0.70939    1.000
    H41      H        0.81460    0.68320    0.71890    1.000
    O76      O        0.82675    0.94001    0.37683    1.000
    C106     C        0.72637    0.63272    0.64795    1.000
    C107     C        0.86361    0.97582    0.40682    1.000
    C108     C        0.65954    0.20638    0.40894    1.000
    O77      O        0.62666    0.26130    0.43299    1.000
    O78      O        0.63613    0.18309    0.36981    1.000
    H42      H        0.98100    0.16530    0.65530    1.000
    O79      O        0.41471    0.78494    0.22163    1.000
    C109     C        0.44061    0.85796    0.22849    1.000
    C110     C        0.39975    0.90215    0.26793    1.000
    C111     C        0.29652    0.90688    0.32711    1.000
    C112     C        0.42830    0.97785    0.28220    1.000
    H43      H        0.47250    0.00160    0.26710    1.000
    C113     C        0.32515    0.98236    0.34116    1.000
    H44      H        0.30010    0.00920    0.36560    1.000
    C114     C        0.39151    0.01850    0.31880    1.000
    C115     C        0.42168    0.10017    0.33397    1.000
    O80      O        0.48483    0.12773    0.31348    1.000
    O81      O        0.38343    0.13683    0.36509    1.000
    O82      O        0.17972    0.90779    0.37606    1.000
    Zn19     Zn       0.54027    0.34009    0.42001    1.000
    Zn20     Zn       0.54947    0.22250    0.33072    1.000
    Zn21     Zn       0.37289    0.25333    0.38234    1.000
    O83      O        0.35022    0.25855    0.44835    1.000
    O84      O        0.21953    0.78947    0.34632    1.000
    O85      O        0.48011    0.30058    0.36589    1.000
    O86      O        0.42905    0.54939    0.57404    1.000
    C116     C        0.23347    0.33484    0.57123    1.000
    O87      O        0.46100    0.32817    0.47040    1.000
    C117     C        0.26333    0.40652    0.59137    1.000
    H45      H        0.23630    0.42940    0.61640    1.000
    C118     C        0.34413    0.33749    0.51659    1.000
    C119     C        0.27319    0.30164    0.53324    1.000
    H46      H        0.25220    0.25530    0.51890    1.000
    C120     C        0.37360    0.40730    0.53740    1.000
    H47      H        0.42170    0.43060    0.52660    1.000
    C121     C        0.38813    0.30485    0.47512    1.000
    C122     C        0.33329    0.44364    0.57406    1.000
    O88      O        0.49426    0.89308    0.20655    1.000
    C123     C        0.33400    0.86755    0.29061    1.000
    H48      H        0.31460    0.81680    0.28110    1.000
    O89      O        0.32675    0.55999    0.62317    1.000
    C124     C        0.22637    0.86728    0.35205    1.000
    C125     C        0.36361    0.52418    0.59318    1.000
    C126     C        0.15954    0.29362    0.59106    1.000
    O90      O        0.12666    0.23870    0.56701    1.000
    O91      O        0.13613    0.31691    0.63019    1.000
    H49      H        0.48100    0.33470    0.34470    1.000
    O92      O        0.08529    0.21506    0.72163    1.000
    C127     C        0.05939    0.14204    0.72849    1.000
    C128     C        0.10025    0.09785    0.76793    1.000
    C129     C        0.20348    0.09312    0.82711    1.000
    C130     C        0.07170    0.02215    0.78220    1.000
    H50      H        0.02750    0.99840    0.76710    1.000
    C131     C        0.17485    0.01764    0.84116    1.000
    H51      H        0.19990    0.99080    0.86560    1.000
    C132     C        0.10849    0.98150    0.81880    1.000
    C133     C        0.07832    0.89983    0.83397    1.000
    O93      O        0.01517    0.87227    0.81348    1.000
    O94      O        0.11657    0.86317    0.86509    1.000
    O95      O        0.32028    0.09221    0.87606    1.000
    Zn22     Zn       0.95973    0.65991    0.92001    1.000
    Zn23     Zn       0.95052    0.77750    0.83072    1.000
    Zn24     Zn       0.12711    0.74667    0.88234    1.000
    O96      O        0.14978    0.74145    0.94835    1.000
    O97      O        0.28047    0.21053    0.84632    1.000
    O98      O        0.01989    0.69942    0.86589    1.000
    O99      O        0.07095    0.45061    0.07404    1.000
    C134     C        0.26653    0.66516    0.07123    1.000
    O100     O        0.03900    0.67183    0.97040    1.000
    C135     C        0.23667    0.59348    0.09137    1.000
    H52      H        0.26370    0.57060    0.11640    1.000
    C136     C        0.15587    0.66251    0.01659    1.000
    C137     C        0.22681    0.69836    0.03324    1.000
    H53      H        0.24780    0.74470    0.01890    1.000
    C138     C        0.12640    0.59270    0.03740    1.000
    H54      H        0.07830    0.56940    0.02660    1.000
    C139     C        0.11187    0.69515    0.97512    1.000
    C140     C        0.16671    0.55636    0.07406    1.000
    O101     O        0.00574    0.10692    0.70655    1.000
    C141     C        0.16600    0.13245    0.79061    1.000
    H55      H        0.18540    0.18320    0.78110    1.000
    O102     O        0.17325    0.44001    0.12317    1.000
    C142     C        0.27363    0.13272    0.85205    1.000
    C143     C        0.13639    0.47582    0.09318    1.000
    C144     C        0.34046    0.70638    0.09106    1.000
    O103     O        0.37334    0.76130    0.06701    1.000
    O104     O        0.36387    0.68309    0.13019    1.000
    H56      H        0.01900    0.66530    0.84470    1.000
