# CIF file generated by openbabel 3.1.0, see https://openbabel.org
data_I
_chemical_name_common 'image0'
_cell_length_a 8.3365
_cell_length_b 10.453
_cell_length_c 19.03
_cell_angle_alpha 90
_cell_angle_beta 90
_cell_angle_gamma 90
_space_group_name_H-M_alt 'P 1'
_space_group_name_Hall 'P 1'
loop_
    _symmetry_equiv_pos_as_xyz
    x,y,z
loop_
    _atom_site_label
    _atom_site_type_symbol
    _atom_site_fract_x
    _atom_site_fract_y
    _atom_site_fract_z
    _atom_site_occupancy
    Cu1      Cu       0.76054    0.10503    0.62338    1.000
    O1       O        0.06480    0.37660    0.83488    1.000
    O2       O        0.21020    0.52780    0.78331    1.000
    O3       O        0.32280    0.49770    0.52530    1.000
    O4       O        0.23420    0.32220    0.47057    1.000
    N1       N        0.95870    0.21780    0.63928    1.000
    N2       N        0.57000    0.99430    0.60430    1.000
    N3       N        0.17910    0.75500    0.57640    1.000
    H1       H        0.19500    0.67610    0.56570    1.000
    H2       H        0.08300    0.78300    0.58220    1.000
    C1       C        0.24890    0.39620    0.52390    1.000
    C2       C        0.04760    0.25650    0.58400    1.000
    H3       H        0.03010    0.21800    0.54060    1.000
    C3       C        0.18830    0.40860    0.65360    1.000
    H4       H        0.26240    0.47450    0.65820    1.000
    C4       C        0.16340    0.35050    0.58890    1.000
    C5       C        0.98750    0.27210    0.70130    1.000
    H5       H        0.92840    0.24500    0.74000    1.000
    C6       C        0.10110    0.36700    0.71120    1.000
    C7       C        0.12500    0.42630    0.78280    1.000
    C8       C        0.42040    0.03760    0.60860    1.000
    H6       H        0.40550    0.12400    0.61830    1.000
    C9       C        0.28740    0.96340    0.59990    1.000
    H7       H        0.18590    0.99920    0.60450    1.000
    C10      C        0.30380    0.83430    0.58390    1.000
    C11      C        0.45950    0.79080    0.57470    1.000
    H8       H        0.47750    0.70670    0.56080    1.000
    C12      C        0.58700    0.87060    0.58600    1.000
    H9       H        0.69000    0.83790    0.58080    1.000
    Cu2      Cu       0.73946    0.89497    0.12338    1.000
    O5       O        0.43520    0.62340    0.33488    1.000
    O6       O        0.28980    0.47220    0.28331    1.000
    O7       O        0.17720    0.50230    0.02530    1.000
    O8       O        0.26580    0.67780    0.97057    1.000
    N4       N        0.54130    0.78220    0.13928    1.000
    N5       N        0.93000    0.00570    0.10430    1.000
    N6       N        0.32090    0.24500    0.07640    1.000
    H10      H        0.30500    0.32390    0.06570    1.000
    H11      H        0.41700    0.21700    0.08220    1.000
    C13      C        0.25110    0.60380    0.02390    1.000
    C14      C        0.45240    0.74350    0.08400    1.000
    H12      H        0.46990    0.78200    0.04060    1.000
    C15      C        0.31170    0.59140    0.15360    1.000
    H13      H        0.23760    0.52550    0.15820    1.000
    C16      C        0.33660    0.64950    0.08890    1.000
    C17      C        0.51250    0.72790    0.20130    1.000
    H14      H        0.57160    0.75500    0.24000    1.000
    C18      C        0.39890    0.63300    0.21120    1.000
    C19      C        0.37500    0.57370    0.28280    1.000
    C20      C        0.07960    0.96240    0.10860    1.000
    H15      H        0.09450    0.87600    0.11830    1.000
    C21      C        0.21260    0.03660    0.09990    1.000
    H16      H        0.31410    0.00080    0.10450    1.000
    C22      C        0.19620    0.16570    0.08390    1.000
    C23      C        0.04050    0.20920    0.07470    1.000
    H17      H        0.02250    0.29330    0.06080    1.000
    C24      C        0.91300    0.12940    0.08600    1.000
    H18      H        0.81000    0.16210    0.08080    1.000
    Cu3      Cu       0.23946    0.60503    0.87662    1.000
    O9       O        0.93520    0.87660    0.66512    1.000
    O10      O        0.78980    0.02780    0.71669    1.000
    O11      O        0.67720    0.99770    0.97470    1.000
    O12      O        0.76580    0.82220    0.02943    1.000
    N7       N        0.04130    0.71780    0.86072    1.000
    N8       N        0.43000    0.49430    0.89570    1.000
    N9       N        0.82090    0.25500    0.92360    1.000
    H19      H        0.80500    0.17610    0.93430    1.000
    H20      H        0.91700    0.28300    0.91780    1.000
    C25      C        0.75110    0.89620    0.97610    1.000
    C26      C        0.95240    0.75650    0.91600    1.000
    H21      H        0.96990    0.71800    0.95940    1.000
    C27      C        0.81170    0.90860    0.84640    1.000
    H22      H        0.73760    0.97450    0.84180    1.000
    C28      C        0.83660    0.85050    0.91110    1.000
    C29      C        0.01250    0.77210    0.79870    1.000
    H23      H        0.07160    0.74500    0.76000    1.000
    C30      C        0.89890    0.86700    0.78880    1.000
    C31      C        0.87500    0.92630    0.71720    1.000
    C32      C        0.57960    0.53760    0.89140    1.000
    H24      H        0.59450    0.62400    0.88170    1.000
    C33      C        0.71260    0.46340    0.90010    1.000
    H25      H        0.81410    0.49920    0.89550    1.000
    C34      C        0.69620    0.33430    0.91610    1.000
    C35      C        0.54050    0.29080    0.92530    1.000
    H26      H        0.52250    0.20670    0.93920    1.000
    C36      C        0.41300    0.37060    0.91400    1.000
    H27      H        0.31000    0.33790    0.91920    1.000
    Cu4      Cu       0.26054    0.39497    0.37662    1.000
    O13      O        0.56480    0.12340    0.16512    1.000
    O14      O        0.71020    0.97220    0.21669    1.000
    O15      O        0.82280    0.00230    0.47470    1.000
    O16      O        0.73420    0.17780    0.52943    1.000
    N10      N        0.45870    0.28220    0.36072    1.000
    N11      N        0.07000    0.50570    0.39570    1.000
    N12      N        0.67910    0.74500    0.42360    1.000
    H28      H        0.69500    0.82390    0.43430    1.000
    H29      H        0.58300    0.71700    0.41780    1.000
    C37      C        0.74890    0.10380    0.47610    1.000
    C38      C        0.54760    0.24350    0.41600    1.000
    H30      H        0.53010    0.28200    0.45940    1.000
    C39      C        0.68830    0.09140    0.34640    1.000
    H31      H        0.76240    0.02550    0.34180    1.000
    C40      C        0.66340    0.14950    0.41110    1.000
    C41      C        0.48750    0.22790    0.29870    1.000
    H32      H        0.42840    0.25500    0.26000    1.000
    C42      C        0.60110    0.13300    0.28880    1.000
    C43      C        0.62500    0.07370    0.21720    1.000
    C44      C        0.92040    0.46240    0.39140    1.000
    H33      H        0.90550    0.37600    0.38170    1.000
    C45      C        0.78740    0.53660    0.40010    1.000
    H34      H        0.68590    0.50080    0.39550    1.000
    C46      C        0.80380    0.66570    0.41610    1.000
    C47      C        0.95950    0.70920    0.42530    1.000
    H35      H        0.97750    0.79330    0.43920    1.000
    C48      C        0.08700    0.62940    0.41400    1.000
    H36      H        0.19000    0.66210    0.41920    1.000
