# CIF file generated by openbabel 3.1.0, see https://openbabel.org
data_I
_chemical_name_common 'image0'
_cell_length_a 15.783
_cell_length_b 8.378
_cell_length_c 15.955
_cell_angle_alpha 90
_cell_angle_beta 111.5
_cell_angle_gamma 90
_space_group_name_H-M_alt 'P 1'
_space_group_name_Hall 'P 1'
loop_
    _symmetry_equiv_pos_as_xyz
    x,y,z
loop_
    _atom_site_label
    _atom_site_type_symbol
    _atom_site_fract_x
    _atom_site_fract_y
    _atom_site_fract_z
    _atom_site_occupancy
    Zn1      Zn       0.36328    0.63895    0.47452    1.000
    P1       P        0.15472    0.63362    0.36453    1.000
    P2       P        0.02115    0.12698    0.40041    1.000
    O1       O        0.25108    0.59570    0.37340    1.000
    O2       O        0.14390    0.68590    0.45038    1.000
    O3       O        0.11171    0.74720    0.28635    1.000
    O4       O        0.95761    0.21800    0.43400    1.000
    O5       O        0.97507    0.98540    0.34229    1.000
    O6       O        0.10937    0.07830    0.47654    1.000
    H1       H        0.11040    0.49800    0.34160    1.000
    H2       H        0.04810    0.22500    0.35260    1.000
    Zn2      Zn       0.86328    0.13895    0.47452    1.000
    P3       P        0.65472    0.13362    0.36453    1.000
    P4       P        0.52115    0.62698    0.40041    1.000
    O7       O        0.75108    0.09570    0.37340    1.000
    O8       O        0.64390    0.18590    0.45038    1.000
    O9       O        0.61171    0.24720    0.28635    1.000
    O10      O        0.45761    0.71800    0.43400    1.000
    O11      O        0.47507    0.48540    0.34229    1.000
    O12      O        0.60937    0.57830    0.47654    1.000
    H3       H        0.61040    0.99800    0.34160    1.000
    H4       H        0.54810    0.72500    0.35260    1.000
    Zn3      Zn       0.63672    0.63895    0.02548    1.000
    P5       P        0.84528    0.63362    0.13547    1.000
    P6       P        0.97885    0.12698    0.09959    1.000
    O13      O        0.74892    0.59570    0.12660    1.000
    O14      O        0.85610    0.68590    0.04962    1.000
    O15      O        0.88829    0.74720    0.21365    1.000
    O16      O        0.04239    0.21800    0.06600    1.000
    O17      O        0.02493    0.98540    0.15771    1.000
    O18      O        0.89063    0.07830    0.02346    1.000
    H5       H        0.88960    0.49800    0.15840    1.000
    H6       H        0.95190    0.22500    0.14740    1.000
    Zn4      Zn       0.13672    0.13895    0.02548    1.000
    P7       P        0.34528    0.13362    0.13547    1.000
    P8       P        0.47885    0.62698    0.09959    1.000
    O19      O        0.24892    0.09570    0.12660    1.000
    O20      O        0.35610    0.18590    0.04962    1.000
    O21      O        0.38829    0.24720    0.21365    1.000
    O22      O        0.54239    0.71800    0.06600    1.000
    O23      O        0.52493    0.48540    0.15771    1.000
    O24      O        0.39063    0.57830    0.02346    1.000
    H7       H        0.38960    0.99800    0.15840    1.000
    H8       H        0.45190    0.72500    0.14740    1.000
    Zn5      Zn       0.63672    0.36105    0.52548    1.000
    P9       P        0.84528    0.36638    0.63547    1.000
    P10      P        0.97885    0.87302    0.59959    1.000
    O25      O        0.74892    0.40430    0.62660    1.000
    O26      O        0.85610    0.31410    0.54962    1.000
    O27      O        0.88829    0.25280    0.71365    1.000
    O28      O        0.04239    0.78200    0.56600    1.000
    O29      O        0.02493    0.01460    0.65771    1.000
    O30      O        0.89063    0.92170    0.52346    1.000
    H9       H        0.88960    0.50200    0.65840    1.000
    H10      H        0.95190    0.77500    0.64740    1.000
    Zn6      Zn       0.13672    0.86105    0.52548    1.000
    P11      P        0.34528    0.86638    0.63547    1.000
    P12      P        0.47885    0.37302    0.59959    1.000
    O31      O        0.24892    0.90430    0.62660    1.000
    O32      O        0.35610    0.81410    0.54962    1.000
    O33      O        0.38829    0.75280    0.71365    1.000
    O34      O        0.54239    0.28200    0.56600    1.000
    O35      O        0.52493    0.51460    0.65771    1.000
    O36      O        0.39063    0.42170    0.52346    1.000
    H11      H        0.38960    0.00200    0.65840    1.000
    H12      H        0.45190    0.27500    0.64740    1.000
    Zn7      Zn       0.36328    0.36105    0.97452    1.000
    P13      P        0.15472    0.36638    0.86453    1.000
    P14      P        0.02115    0.87302    0.90041    1.000
    O37      O        0.25108    0.40430    0.87340    1.000
    O38      O        0.14390    0.31410    0.95038    1.000
    O39      O        0.11171    0.25280    0.78635    1.000
    O40      O        0.95761    0.78200    0.93400    1.000
    O41      O        0.97507    0.01460    0.84229    1.000
    O42      O        0.10937    0.92170    0.97654    1.000
    H13      H        0.11040    0.50200    0.84160    1.000
    H14      H        0.04810    0.77500    0.85260    1.000
    Zn8      Zn       0.86328    0.86105    0.97452    1.000
    P15      P        0.65472    0.86638    0.86453    1.000
    P16      P        0.52115    0.37302    0.90041    1.000
    O43      O        0.75108    0.90430    0.87340    1.000
    O44      O        0.64390    0.81410    0.95038    1.000
    O45      O        0.61171    0.75280    0.78635    1.000
    O46      O        0.45761    0.28200    0.93400    1.000
    O47      O        0.47507    0.51460    0.84229    1.000
    O48      O        0.60937    0.42170    0.97654    1.000
    H15      H        0.61040    0.00200    0.84160    1.000
    H16      H        0.54810    0.27500    0.85260    1.000
    Zn9      Zn       0.00000    0.86908    0.25000    1.000
    Zn10     Zn       0.50000    0.36908    0.25000    1.000
    Zn11     Zn       0.00000    0.13092    0.75000    1.000
    Zn12     Zn       0.50000    0.63092    0.75000    1.000
