# CIF file generated by openbabel 3.1.0, see https://openbabel.org
data_I
_chemical_name_common 'GOZNEQ_clean'
_cell_length_a 10.6761
_cell_length_b 16.1012
_cell_length_c 18.0131
_cell_angle_alpha 103.521
_cell_angle_beta 106.261
_cell_angle_gamma 108.668
_space_group_name_H-M_alt 'P 1'
_space_group_name_Hall 'P 1'
loop_
    _symmetry_equiv_pos_as_xyz
    x,y,z
loop_
    _atom_site_label
    _atom_site_type_symbol
    _atom_site_fract_x
    _atom_site_fract_y
    _atom_site_fract_z
    _atom_site_occupancy
    Mn1      Mn       0.48960    0.16574    0.16687    1.000
    Mn2      Mn       0.50000    0.50000    0.50000    1.000
    Mn3      Mn       0.51040    0.83426    0.83313    1.000
    H1       H        0.67190    0.97820    0.33690    1.000
    H2       H        0.66890    0.45410    0.08730    1.000
    H3       H        0.74380    0.79870    0.95280    1.000
    H4       H        0.34030    0.68980    0.33020    1.000
    H5       H        0.32180    0.57320    0.38850    1.000
    H6       H        0.33110    0.54590    0.91270    1.000
    H7       H        0.23030    0.19430    0.55100    1.000
    H8       H        0.76200    0.69340    0.02080    1.000
    H9       H        0.68970    0.09260    0.27460    1.000
    H10      H        0.31510    0.64910    0.84050    1.000
    H11      H        0.65970    0.31020    0.66980    1.000
    H12      H        0.24720    0.31160    0.49140    1.000
    H13      H        0.31030    0.90740    0.72540    1.000
    H14      H        0.23800    0.30660    0.97920    1.000
    H15      H        0.67820    0.42680    0.61150    1.000
    H16      H        0.68490    0.35090    0.15950    1.000
    H17      H        0.76970    0.80570    0.44900    1.000
    H18      H        0.75280    0.68840    0.50860    1.000
    H19      H        0.75860    0.13150    0.77390    1.000
    H20      H        0.25680    0.98290    0.16590    1.000
    H21      H        0.24140    0.86850    0.22610    1.000
    H22      H        0.74320    0.01710    0.83410    1.000
    H23      H        0.25620    0.20130    0.04720    1.000
    H24      H        0.32810    0.02180    0.66310    1.000
    W1       W        0.03855    0.21714    0.23215    1.000
    W2       W        0.96145    0.78286    0.76785    1.000
    C1       C        0.45640    0.91330    0.28720    1.000
    C2       C        0.07730    0.12700    0.30200    1.000
    C3       C        0.67090    0.68490    0.98480    1.000
    C4       C        0.66010    0.74700    0.94420    1.000
    C5       C        0.55240    0.75560    0.38530    1.000
    C6       C        0.96720    0.75850    0.87880    1.000
    C7       C        0.67930    0.75810    0.43750    1.000
    C8       C        0.33990    0.25300    0.05580    1.000
    C9       C        0.59430    0.34100    0.12200    1.000
    C10      C        0.23570    0.32550    0.33220    1.000
    C11      C        0.54360    0.08670    0.71280    1.000
    C12      C        0.66750    0.08560    0.76380    1.000
    C13      C        0.02460    0.75240    0.66290    1.000
    C14      C        0.65850    0.01810    0.79970    1.000
    C15      C        0.33250    0.91440    0.23620    1.000
    C16      C        0.32070    0.24190    0.56250    1.000
    C17      C        0.92270    0.87300    0.69800    1.000
    C18      C        0.02050    0.34850    0.24840    1.000
    C19      C        0.58500    0.40330    0.07980    1.000
    C20      C        0.58750    0.97890    0.30170    1.000
    C21      C        0.93570    0.07440    0.14300    1.000
    C22      C        0.42380    0.68950    0.36670    1.000
    C23      C        0.20510    0.18790    0.20510    1.000
    C24      C        0.41310    0.62040    0.40100    1.000
    C25      C        0.41250    0.02110    0.69830    1.000
    C26      C        0.59830    0.04740    0.26490    1.000
    C27      C        0.66880    0.68840    0.47230    1.000
    C28      C        0.97950    0.65150    0.75160    1.000
    C29      C        0.58690    0.37960    0.59900    1.000
    C30      C        0.54850    0.61030    0.97280    1.000
    C31      C        0.41500    0.59670    0.92020    1.000
    C32      C        0.57620    0.31050    0.63330    1.000
    C33      C        0.33120    0.31160    0.52770    1.000
    C34      C        0.18610    0.81990    0.81840    1.000
    C35      C        0.45150    0.38970    0.02720    1.000
    C36      C        0.03280    0.24150    0.12120    1.000
    C37      C        0.40570    0.65900    0.87800    1.000
    C38      C        0.32910    0.31510    0.01520    1.000
    C39      C        0.06430    0.92560    0.85700    1.000
    C40      C        0.79490    0.81210    0.79490    1.000
    C41      C        0.81390    0.18010    0.18160    1.000
    C42      C        0.34150    0.98190    0.20030    1.000
    C43      C        0.40170    0.95260    0.73510    1.000
    C44      C        0.76430    0.67450    0.66780    1.000
    C45      C        0.44760    0.24440    0.61470    1.000
    C46      C        0.97540    0.24760    0.33710    1.000
    N1       N        0.69200    0.16210    0.15840    1.000
    N2       N        0.03570    0.25410    0.05980    1.000
    N3       N        0.30130    0.17710    0.18960    1.000
    N4       N        0.96430    0.74590    0.94020    1.000
    N5       N        0.55450    0.16060    0.67970    1.000
    N6       N        0.52400    0.95130    0.78530    1.000
    N7       N        0.87890    0.00080    0.09120    1.000
    N8       N        0.44550    0.83940    0.32030    1.000
    N9       N        0.33620    0.38250    0.38800    1.000
    N10      N        0.56140    0.54030    0.01490    1.000
    N11      N        0.94740    0.26590    0.39550    1.000
    N12      N        0.47440    0.26610    0.10970    1.000
    N13      N        0.90390    0.92000    0.66080    1.000
    N14      N        0.66380    0.61750    0.61200    1.000
    N15      N        0.56970    0.82980    0.35480    1.000
    N16      N        0.12110    0.99920    0.90880    1.000
    N17      N        0.43860    0.45970    0.98510    1.000
    N18      N        0.02140    0.42220    0.25560    1.000
    N19      N        0.43030    0.17020    0.64520    1.000
    N20      N        0.47600    0.04870    0.21470    1.000
    N21      N        0.09610    0.08000    0.33920    1.000
    N22      N        0.05260    0.73410    0.60450    1.000
    N23      N        0.30800    0.83790    0.84160    1.000
    N24      N        0.52560    0.73390    0.89030    1.000
    N25      N        0.53680    0.62000    0.45400    1.000
    N26      N        0.97860    0.57780    0.74440    1.000
    N27      N        0.69870    0.82290    0.81040    1.000
    N28      N        0.46320    0.38000    0.54600    1.000
