# CIF file generated by openbabel 3.1.0, see https://openbabel.org
data_I
_chemical_name_common 'image0'
_cell_length_a 6.6754
_cell_length_b 18.3943
_cell_length_c 8.4571
_cell_angle_alpha 90
_cell_angle_beta 90
_cell_angle_gamma 90
_space_group_name_H-M_alt 'P 1'
_space_group_name_Hall 'P 1'
loop_
    _symmetry_equiv_pos_as_xyz
    x,y,z
loop_
    _atom_site_label
    _atom_site_type_symbol
    _atom_site_fract_x
    _atom_site_fract_y
    _atom_site_fract_z
    _atom_site_occupancy
    O1       O        0.16410    0.09438    0.76950    1.000
    O2       O        0.49000    0.05021    0.56980    1.000
    O3       O        0.17550    0.31651    0.01870    1.000
    O4       O        0.32020    0.24192    0.84800    1.000
    C1       C        0.23670    0.25630    0.97540    1.000
    H1       H        0.21850    0.21780    0.04530    1.000
    O5       O        0.66410    0.59438    0.76950    1.000
    O6       O        0.99000    0.55021    0.56980    1.000
    O7       O        0.67550    0.81651    0.01870    1.000
    O8       O        0.82020    0.74192    0.84800    1.000
    C2       C        0.73670    0.75630    0.97540    1.000
    H2       H        0.71850    0.71780    0.04530    1.000
    O9       O        0.83590    0.90562    0.26950    1.000
    O10      O        0.51000    0.94979    0.06980    1.000
    O11      O        0.82450    0.68349    0.51870    1.000
    O12      O        0.67980    0.75808    0.34800    1.000
    C3       C        0.76330    0.74370    0.47540    1.000
    H3       H        0.78150    0.78220    0.54530    1.000
    O13      O        0.33590    0.40562    0.26950    1.000
    O14      O        0.01000    0.44979    0.06980    1.000
    O15      O        0.32450    0.18349    0.51870    1.000
    O16      O        0.17980    0.25808    0.34800    1.000
    C4       C        0.26330    0.24370    0.47540    1.000
    H4       H        0.28150    0.28220    0.54530    1.000
    O17      O        0.83590    0.09438    0.73050    1.000
    O18      O        0.51000    0.05021    0.93020    1.000
    O19      O        0.82450    0.31651    0.48130    1.000
    O20      O        0.67980    0.24192    0.65200    1.000
    C5       C        0.76330    0.25630    0.52460    1.000
    H5       H        0.78150    0.21780    0.45470    1.000
    O21      O        0.33590    0.59438    0.73050    1.000
    O22      O        0.01000    0.55021    0.93020    1.000
    O23      O        0.32450    0.81651    0.48130    1.000
    O24      O        0.17980    0.74192    0.65200    1.000
    C6       C        0.26330    0.75630    0.52460    1.000
    H6       H        0.28150    0.71780    0.45470    1.000
    O25      O        0.16410    0.90562    0.23050    1.000
    O26      O        0.49000    0.94979    0.43020    1.000
    O27      O        0.17550    0.68349    0.98130    1.000
    O28      O        0.32020    0.75808    0.15200    1.000
    C7       C        0.23670    0.74370    0.02460    1.000
    H7       H        0.21850    0.78220    0.95470    1.000
    O29      O        0.66410    0.40562    0.23050    1.000
    O30      O        0.99000    0.44979    0.43020    1.000
    O31      O        0.67550    0.18349    0.98130    1.000
    O32      O        0.82020    0.25808    0.15200    1.000
    C8       C        0.73670    0.24370    0.02460    1.000
    H8       H        0.71850    0.28220    0.95470    1.000
    Y1       Y        0.50000    0.14261    0.75000    1.000
    Y2       Y        0.00000    0.64260    0.75000    1.000
    Y3       Y        0.50000    0.85740    0.25000    1.000
    Y4       Y        0.00000    0.35739    0.25000    1.000
    C9       C        0.00000    0.12540    0.75000    1.000
    H9       H        0.00000    0.17600    0.75000    1.000
    C10      C        0.50000    0.62540    0.75000    1.000
    H10      H        0.50000    0.67600    0.75000    1.000
    C11      C        0.00000    0.87460    0.25000    1.000
    H11      H        0.00000    0.82400    0.25000    1.000
    C12      C        0.50000    0.37460    0.25000    1.000
    H12      H        0.50000    0.32400    0.25000    1.000
    C13      C        0.57490    0.00000    0.50000    1.000
    H13      H        0.71420    0.00000    0.50000    1.000
    C14      C        0.07490    0.50000    0.50000    1.000
    H14      H        0.21420    0.50000    0.50000    1.000
    C15      C        0.42510    0.00000    0.00000    1.000
    H15      H        0.28580    0.00000    0.00000    1.000
    C16      C        0.92510    0.50000    0.00000    1.000
    H16      H        0.78580    0.50000    0.00000    1.000
