# CIF file generated by openbabel 3.1.0, see https://openbabel.org
data_I
_chemical_name_common 'image0'
_cell_length_a 7.83
_cell_length_b 10.912
_cell_length_c 12.498
_cell_angle_alpha 106.544
_cell_angle_beta 96.596
_cell_angle_gamma 99.562
_space_group_name_H-M_alt 'P 1'
_space_group_name_Hall 'P 1'
loop_
    _symmetry_equiv_pos_as_xyz
    x,y,z
loop_
    _atom_site_label
    _atom_site_type_symbol
    _atom_site_fract_x
    _atom_site_fract_y
    _atom_site_fract_z
    _atom_site_occupancy
    Co1      Co       0.86215    0.51850    0.40173    1.000
    Co2      Co       0.51596    0.36557    0.52034    1.000
    O1       O        0.93870    0.36360    0.46070    1.000
    O2       O        0.70210    0.25290    0.50280    1.000
    O3       O        0.65310    0.77900    0.45010    1.000
    O4       O        0.83440    0.67430    0.34900    1.000
    O5       O        0.53160    0.05360    0.20280    1.000
    O6       O        0.61500    0.88850    0.11130    1.000
    O7       O        0.27740    0.62260    0.75090    1.000
    O8       O        0.99050    0.56250    0.73420    1.000
    O9       O        0.19260    0.01220    0.21820    1.000
    O10      O        0.67530    0.52700    0.49940    1.000
    H1       H        0.74100    0.57420    0.57580    1.000
    N1       N        0.50010    0.94610    0.13480    1.000
    C1       C        0.88600    0.13060    0.40320    1.000
    C2       C        0.80230    0.01470    0.41830    1.000
    H2       H        0.71370    0.01600    0.46190    1.000
    C3       C        0.85090    0.89790    0.36870    1.000
    C4       C        0.98110    0.89480    0.30080    1.000
    H3       H        0.01660    0.81720    0.26870    1.000
    C5       C        0.05570    0.00880    0.28210    1.000
    C6       C        0.01300    0.12730    0.33370    1.000
    H4       H        0.06840    0.20350    0.32200    1.000
    C7       C        0.83690    0.25710    0.46010    1.000
    C8       C        0.77200    0.77300    0.39110    1.000
    C9       C        0.17140    0.92090    0.11450    1.000
    C10      C        0.32190    0.88750    0.07190    1.000
    C11      C        0.30700    0.79450    0.96740    1.000
    H5       H        0.40790    0.77280    0.94120    1.000
    C12      C        0.14510    0.73400    0.90180    1.000
    C13      C        0.99610    0.76880    0.94240    1.000
    H6       H        0.88590    0.72970    0.89830    1.000
    C14      C        0.00850    0.86090    0.04750    1.000
    H7       H        0.90710    0.88240    0.07300    1.000
    C15      C        0.13520    0.63430    0.78940    1.000
    Co3      Co       0.13785    0.48150    0.59827    1.000
    Co4      Co       0.48404    0.63443    0.47966    1.000
    O11      O        0.06130    0.63640    0.53930    1.000
    O12      O        0.29790    0.74710    0.49720    1.000
    O13      O        0.34690    0.22100    0.54990    1.000
    O14      O        0.16560    0.32570    0.65100    1.000
    O15      O        0.46840    0.94640    0.79720    1.000
    O16      O        0.38500    0.11150    0.88870    1.000
    O17      O        0.72260    0.37740    0.24910    1.000
    O18      O        0.00950    0.43750    0.26580    1.000
    O19      O        0.80740    0.98780    0.78180    1.000
    O20      O        0.32470    0.47300    0.50060    1.000
    H8       H        0.25900    0.42580    0.42420    1.000
    N2       N        0.49990    0.05390    0.86520    1.000
    C16      C        0.11400    0.86940    0.59680    1.000
    C17      C        0.19770    0.98530    0.58170    1.000
    H9       H        0.28630    0.98400    0.53810    1.000
    C18      C        0.14910    0.10210    0.63130    1.000
    C19      C        0.01890    0.10520    0.69920    1.000
    H10      H        0.98340    0.18280    0.73130    1.000
    C20      C        0.94430    0.99120    0.71790    1.000
    C21      C        0.98700    0.87270    0.66630    1.000
    H11      H        0.93160    0.79650    0.67800    1.000
    C22      C        0.16310    0.74290    0.53990    1.000
    C23      C        0.22800    0.22700    0.60890    1.000
    C24      C        0.82860    0.07910    0.88550    1.000
    C25      C        0.67810    0.11250    0.92810    1.000
    C26      C        0.69300    0.20550    0.03260    1.000
    H12      H        0.59210    0.22720    0.05880    1.000
    C27      C        0.85490    0.26600    0.09820    1.000
    C28      C        0.00390    0.23120    0.05760    1.000
    H13      H        0.11410    0.27030    0.10170    1.000
    C29      C        0.99150    0.13910    0.95250    1.000
    H14      H        0.09290    0.11760    0.92700    1.000
    C30      C        0.86480    0.36570    0.21060    1.000
