# CIF file generated by openbabel 3.1.0, see https://openbabel.org
data_I
_chemical_name_common 'image0'
_cell_length_a 23.0299
_cell_length_b 23.0299
_cell_length_c 24.3973
_cell_angle_alpha 90
_cell_angle_beta 90
_cell_angle_gamma 90
_space_group_name_H-M_alt 'P 1'
_space_group_name_Hall 'P 1'
loop_
    _symmetry_equiv_pos_as_xyz
    x,y,z
loop_
    _atom_site_label
    _atom_site_type_symbol
    _atom_site_fract_x
    _atom_site_fract_y
    _atom_site_fract_z
    _atom_site_occupancy
    O1       O        0.72890    0.51550    0.53950    1.000
    O2       O        0.70840    0.43720    0.63440    1.000
    O3       O        0.74830    0.38380    0.56770    1.000
    O4       O        0.63610    0.54640    0.61990    1.000
    N1       N        0.67710    0.09180    0.75720    1.000
    N2       N        0.67900    0.18300    0.73460    1.000
    C1       C        0.72460    0.39110    0.61330    1.000
    C2       C        0.64410    0.17960    0.77650    1.000
    H1       H        0.62410    0.20960    0.79370    1.000
    C3       C        0.68940    0.23660    0.70490    1.000
    C4       C        0.71240    0.33550    0.64580    1.000
    C5       C        0.68250    0.33890    0.69380    1.000
    H2       H        0.66970    0.37460    0.70700    1.000
    H3       H        0.73230    0.62370    0.53310    1.000
    H4       H        0.72840    0.62370    0.46900    1.000
    H5       H        0.78920    0.62370    0.49790    1.000
    C6       C        0.70000    0.12950    0.72340    1.000
    H6       H        0.72660    0.12080    0.69590    1.000
    C7       C        0.67140    0.28800    0.72260    1.000
    H7       H        0.65080    0.29010    0.75540    1.000
    C8       C        0.64360    0.12480    0.78880    1.000
    H8       H        0.62160    0.10980    0.81740    1.000
    C9       C        0.72200    0.23330    0.65760    1.000
    H9       H        0.73680    0.19780    0.64590    1.000
    C10      C        0.73240    0.28270    0.62800    1.000
    H10      H        0.75330    0.28040    0.59540    1.000
    H11      H        0.62230    0.68290    0.62910    1.000
    H12      H        0.57820    0.63880    0.65490    1.000
    H13      H        0.58360    0.64420    0.59100    1.000
    O5       O        0.22890    0.01550    0.03950    1.000
    O6       O        0.20840    0.93720    0.13440    1.000
    O7       O        0.24830    0.88380    0.06770    1.000
    O8       O        0.13610    0.04640    0.11990    1.000
    N3       N        0.17710    0.59180    0.25720    1.000
    N4       N        0.17900    0.68300    0.23460    1.000
    C11      C        0.22460    0.89110    0.11330    1.000
    C12      C        0.14410    0.67960    0.27650    1.000
    H14      H        0.12410    0.70960    0.29370    1.000
    C13      C        0.18940    0.73660    0.20490    1.000
    C14      C        0.21240    0.83550    0.14580    1.000
    C15      C        0.18250    0.83890    0.19380    1.000
    H15      H        0.16970    0.87460    0.20700    1.000
    H16      H        0.23230    0.12370    0.03310    1.000
    H17      H        0.22840    0.12370    0.96900    1.000
    H18      H        0.28920    0.12370    0.99790    1.000
    C16      C        0.20000    0.62950    0.22340    1.000
    H19      H        0.22660    0.62080    0.19590    1.000
    C17      C        0.17140    0.78800    0.22260    1.000
    H20      H        0.15080    0.79010    0.25540    1.000
    C18      C        0.14360    0.62480    0.28880    1.000
    H21      H        0.12160    0.60980    0.31740    1.000
    C19      C        0.22200    0.73330    0.15760    1.000
    H22      H        0.23680    0.69780    0.14590    1.000
    C20      C        0.23240    0.78270    0.12800    1.000
    H23      H        0.25330    0.78040    0.09540    1.000
    H24      H        0.12230    0.18290    0.12910    1.000
    H25      H        0.07820    0.13880    0.15490    1.000
    H26      H        0.08360    0.14420    0.09100    1.000
    O9       O        0.77110    0.48450    0.03950    1.000
    O10      O        0.79160    0.56280    0.13440    1.000
    O11      O        0.75170    0.61620    0.06770    1.000
    O12      O        0.86390    0.45360    0.11990    1.000
    N5       N        0.82290    0.90820    0.25720    1.000
    N6       N        0.82100    0.81700    0.23460    1.000
    C21      C        0.77540    0.60890    0.11330    1.000
    C22      C        0.85590    0.82040    0.27650    1.000
    H27      H        0.87590    0.79040    0.29370    1.000
    C23      C        0.81060    0.76340    0.20490    1.000
    C24      C        0.78760    0.66450    0.14580    1.000
    C25      C        0.81750    0.66110    0.19380    1.000
    H28      H        0.83030    0.62540    0.20700    1.000
    H29      H        0.76770    0.37630    0.03310    1.000
    H30      H        0.77160    0.37630    0.96900    1.000
    H31      H        0.71080    0.37630    0.99790    1.000
    C26      C        0.80000    0.87050    0.22340    1.000
    H32      H        0.77340    0.87920    0.19590    1.000
    C27      C        0.82860    0.71200    0.22260    1.000
    H33      H        0.84920    0.70990    0.25540    1.000
    C28      C        0.85640    0.87520    0.28880    1.000
    H34      H        0.87840    0.89020    0.31740    1.000
    C29      C        0.77800    0.76670    0.15760    1.000
    H35      H        0.76320    0.80220    0.14590    1.000
    C30      C        0.76760    0.71730    0.12800    1.000
    H36      H        0.74670    0.71960    0.09540    1.000
    H37      H        0.87770    0.31710    0.12910    1.000
    H38      H        0.92180    0.36120    0.15490    1.000
    H39      H        0.91640    0.35580    0.09100    1.000
    O13      O        0.27110    0.98450    0.53950    1.000
    O14      O        0.29160    0.06280    0.63440    1.000
    O15      O        0.25170    0.11620    0.56770    1.000
    O16      O        0.36390    0.95360    0.61990    1.000
    N7       N        0.32290    0.40820    0.75720    1.000
    N8       N        0.32100    0.31700    0.73460    1.000
    C31      C        0.27540    0.10890    0.61330    1.000
    C32      C        0.35590    0.32040    0.77650    1.000
    H40      H        0.37590    0.29040    0.79370    1.000
    C33      C        0.31060    0.26340    0.70490    1.000
    C34      C        0.28760    0.16450    0.64580    1.000
    C35      C        0.31750    0.16110    0.69380    1.000
    H41      H        0.33030    0.12540    0.70700    1.000
    H42      H        0.26770    0.87630    0.53310    1.000
    H43      H        0.27160    0.87630    0.46900    1.000
    H44      H        0.21080    0.87630    0.49790    1.000
    C36      C        0.30000    0.37050    0.72340    1.000
    H45      H        0.27340    0.37920    0.69590    1.000
    C37      C        0.32860    0.21200    0.72260    1.000
    H46      H        0.34920    0.20990    0.75540    1.000
    C38      C        0.35640    0.37520    0.78880    1.000
    H47      H        0.37840    0.39020    0.81740    1.000
    C39      C        0.27800    0.26670    0.65760    1.000
    H48      H        0.26320    0.30220    0.64590    1.000
    C40      C        0.26760    0.21730    0.62800    1.000
    H49      H        0.24670    0.21960    0.59540    1.000
    H50      H        0.37770    0.81710    0.62910    1.000
    H51      H        0.42180    0.86120    0.65490    1.000
    H52      H        0.41640    0.85580    0.59100    1.000
    O17      O        0.73450    0.47890    0.78950    1.000
    O18      O        0.81280    0.45840    0.88440    1.000
    O19      O        0.86620    0.49830    0.81770    1.000
    O20      O        0.70360    0.38610    0.86990    1.000
    N9       N        0.15820    0.42710    0.00720    1.000
    N10      N        0.06700    0.42900    0.98460    1.000
    C41      C        0.85890    0.47460    0.86330    1.000
    C42      C        0.07040    0.39410    0.02650    1.000
    H53      H        0.04040    0.37410    0.04370    1.000
    C43      C        0.01340    0.43940    0.95490    1.000
    C44      C        0.91450    0.46240    0.89580    1.000
    C45      C        0.91110    0.43250    0.94380    1.000
    H54      H        0.87540    0.41970    0.95700    1.000
    H55      H        0.62630    0.48230    0.78310    1.000
    H56      H        0.62630    0.47840    0.71900    1.000
    H57      H        0.62630    0.53920    0.74790    1.000
    C46      C        0.12050    0.45000    0.97340    1.000
    H58      H        0.12920    0.47660    0.94590    1.000
    C47      C        0.96200    0.42140    0.97260    1.000
    H59      H        0.95990    0.40080    0.00540    1.000
    C48      C        0.12520    0.39360    0.03880    1.000
    H60      H        0.14020    0.37160    0.06740    1.000
    C49      C        0.01670    0.47200    0.90760    1.000
    H61      H        0.05220    0.48680    0.89590    1.000
    C50      C        0.96730    0.48240    0.87800    1.000
    H62      H        0.96960    0.50330    0.84540    1.000
    H63      H        0.56710    0.37230    0.87910    1.000
    H64      H        0.61120    0.32820    0.90490    1.000
    H65      H        0.60580    0.33360    0.84100    1.000
    O21      O        0.23450    0.97890    0.28950    1.000
    O22      O        0.31280    0.95840    0.38440    1.000
    O23      O        0.36620    0.99830    0.31770    1.000
    O24      O        0.20360    0.88610    0.36990    1.000
    N11      N        0.65820    0.92710    0.50720    1.000
    N12      N        0.56700    0.92900    0.48460    1.000
    C51      C        0.35890    0.97460    0.36330    1.000
    C52      C        0.57040    0.89410    0.52650    1.000
    H66      H        0.54040    0.87410    0.54370    1.000
    C53      C        0.51340    0.93940    0.45490    1.000
    C54      C        0.41450    0.96240    0.39580    1.000
    C55      C        0.41110    0.93250    0.44380    1.000
    H67      H        0.37540    0.91970    0.45700    1.000
    H68      H        0.12630    0.98230    0.28310    1.000
    H69      H        0.12630    0.97840    0.21900    1.000
    H70      H        0.12630    0.03920    0.24790    1.000
    C56      C        0.62050    0.95000    0.47340    1.000
    H71      H        0.62920    0.97660    0.44590    1.000
    C57      C        0.46200    0.92140    0.47260    1.000
    H72      H        0.45990    0.90080    0.50540    1.000
    C58      C        0.62520    0.89360    0.53880    1.000
    H73      H        0.64020    0.87160    0.56740    1.000
    C59      C        0.51670    0.97200    0.40760    1.000
    H74      H        0.55220    0.98680    0.39590    1.000
    C60      C        0.46730    0.98240    0.37800    1.000
    H75      H        0.46960    0.00330    0.34540    1.000
    H76      H        0.06710    0.87230    0.37910    1.000
    H77      H        0.11120    0.82820    0.40490    1.000
    H78      H        0.10580    0.83360    0.34100    1.000
    O25      O        0.76550    0.52110    0.28950    1.000
    O26      O        0.68720    0.54160    0.38440    1.000
    O27      O        0.63380    0.50170    0.31770    1.000
    O28      O        0.79640    0.61390    0.36990    1.000
    N13      N        0.34180    0.57290    0.50720    1.000
    N14      N        0.43300    0.57100    0.48460    1.000
    C61      C        0.64110    0.52540    0.36330    1.000
    C62      C        0.42960    0.60590    0.52650    1.000
    H79      H        0.45960    0.62590    0.54370    1.000
    C63      C        0.48660    0.56060    0.45490    1.000
    C64      C        0.58550    0.53760    0.39580    1.000
    C65      C        0.58890    0.56750    0.44380    1.000
    H80      H        0.62460    0.58030    0.45700    1.000
    H81      H        0.87370    0.51770    0.28310    1.000
    H82      H        0.87370    0.52160    0.21900    1.000
    H83      H        0.87370    0.46080    0.24790    1.000
    C66      C        0.37950    0.55000    0.47340    1.000
    H84      H        0.37080    0.52340    0.44590    1.000
    C67      C        0.53800    0.57860    0.47260    1.000
    H85      H        0.54010    0.59920    0.50540    1.000
    C68      C        0.37480    0.60640    0.53880    1.000
    H86      H        0.35980    0.62840    0.56740    1.000
    C69      C        0.48330    0.52800    0.40760    1.000
    H87      H        0.44780    0.51320    0.39590    1.000
    C70      C        0.53270    0.51760    0.37800    1.000
    H88      H        0.53040    0.49670    0.34540    1.000
    H89      H        0.93290    0.62770    0.37910    1.000
    H90      H        0.88880    0.67180    0.40490    1.000
    H91      H        0.89420    0.66640    0.34100    1.000
    O29      O        0.26550    0.02110    0.78950    1.000
    O30      O        0.18720    0.04160    0.88440    1.000
    O31      O        0.13380    0.00170    0.81770    1.000
    O32      O        0.29640    0.11390    0.86990    1.000
    N15      N        0.84180    0.07290    0.00720    1.000
    N16      N        0.93300    0.07100    0.98460    1.000
    C71      C        0.14110    0.02540    0.86330    1.000
    C72      C        0.92960    0.10590    0.02650    1.000
    H92      H        0.95960    0.12590    0.04370    1.000
    C73      C        0.98660    0.06060    0.95490    1.000
    C74      C        0.08550    0.03760    0.89580    1.000
    C75      C        0.08890    0.06750    0.94380    1.000
    H93      H        0.12460    0.08030    0.95700    1.000
    H94      H        0.37370    0.01770    0.78310    1.000
    H95      H        0.37370    0.02160    0.71900    1.000
    H96      H        0.37370    0.96080    0.74790    1.000
    C76      C        0.87950    0.05000    0.97340    1.000
    H97      H        0.87080    0.02340    0.94590    1.000
    C77      C        0.03800    0.07860    0.97260    1.000
    H98      H        0.04010    0.09920    0.00540    1.000
    C78      C        0.87480    0.10640    0.03880    1.000
    H99      H        0.85980    0.12840    0.06740    1.000
    C79      C        0.98330    0.02800    0.90760    1.000
    H100     H        0.94780    0.01320    0.89590    1.000
    C80      C        0.03270    0.01760    0.87800    1.000
    H101     H        0.03040    0.99670    0.84540    1.000
    H102     H        0.43290    0.12770    0.87910    1.000
    H103     H        0.38880    0.17180    0.90490    1.000
    H104     H        0.39420    0.16640    0.84100    1.000
    O33      O        0.77110    0.51550    0.46050    1.000
    O34      O        0.79160    0.43720    0.36560    1.000
    O35      O        0.75170    0.38380    0.43230    1.000
    O36      O        0.86390    0.54640    0.38010    1.000
    N17      N        0.82290    0.09180    0.24280    1.000
    N18      N        0.82100    0.18300    0.26540    1.000
    C81      C        0.77540    0.39110    0.38670    1.000
    C82      C        0.85590    0.17960    0.22350    1.000
    H105     H        0.87590    0.20960    0.20630    1.000
    C83      C        0.81060    0.23660    0.29510    1.000
    C84      C        0.78760    0.33550    0.35420    1.000
    C85      C        0.81750    0.33890    0.30620    1.000
    H106     H        0.83030    0.37460    0.29300    1.000
    H107     H        0.76770    0.62370    0.46690    1.000
    H108     H        0.77160    0.62370    0.53100    1.000
    H109     H        0.71080    0.62370    0.50210    1.000
    C86      C        0.80000    0.12950    0.27660    1.000
    H110     H        0.77340    0.12080    0.30410    1.000
    C87      C        0.82860    0.28800    0.27740    1.000
    H111     H        0.84920    0.29010    0.24460    1.000
    C88      C        0.85640    0.12480    0.21120    1.000
    H112     H        0.87840    0.10980    0.18260    1.000
    C89      C        0.77800    0.23330    0.34240    1.000
    H113     H        0.76320    0.19780    0.35410    1.000
    C90      C        0.76760    0.28270    0.37200    1.000
    H114     H        0.74670    0.28040    0.40460    1.000
    H115     H        0.87770    0.68290    0.37090    1.000
    H116     H        0.92180    0.63880    0.34510    1.000
    H117     H        0.91640    0.64420    0.40900    1.000
    O37      O        0.27110    0.01550    0.96050    1.000
    O38      O        0.29160    0.93720    0.86560    1.000
    O39      O        0.25170    0.88380    0.93230    1.000
    O40      O        0.36390    0.04640    0.88010    1.000
    N19      N        0.32290    0.59180    0.74280    1.000
    N20      N        0.32100    0.68300    0.76540    1.000
    C91      C        0.27540    0.89110    0.88670    1.000
    C92      C        0.35590    0.67960    0.72350    1.000
    H118     H        0.37590    0.70960    0.70630    1.000
    C93      C        0.31060    0.73660    0.79510    1.000
    C94      C        0.28760    0.83550    0.85420    1.000
    C95      C        0.31750    0.83890    0.80620    1.000
    H119     H        0.33030    0.87460    0.79300    1.000
    H120     H        0.26770    0.12370    0.96690    1.000
    H121     H        0.27160    0.12370    0.03100    1.000
    H122     H        0.21080    0.12370    0.00210    1.000
    C96      C        0.30000    0.62950    0.77660    1.000
    H123     H        0.27340    0.62080    0.80410    1.000
    C97      C        0.32860    0.78800    0.77740    1.000
    H124     H        0.34920    0.79010    0.74460    1.000
    C98      C        0.35640    0.62480    0.71120    1.000
    H125     H        0.37840    0.60980    0.68260    1.000
    C99      C        0.27800    0.73330    0.84240    1.000
    H126     H        0.26320    0.69780    0.85410    1.000
    C100     C        0.26760    0.78270    0.87200    1.000
    H127     H        0.24670    0.78040    0.90460    1.000
    H128     H        0.37770    0.18290    0.87090    1.000
    H129     H        0.42180    0.13880    0.84510    1.000
    H130     H        0.41640    0.14420    0.90900    1.000
    O41      O        0.72890    0.48450    0.96050    1.000
    O42      O        0.70840    0.56280    0.86560    1.000
    O43      O        0.74830    0.61620    0.93230    1.000
    O44      O        0.63610    0.45360    0.88010    1.000
    N21      N        0.67710    0.90820    0.74280    1.000
    N22      N        0.67900    0.81700    0.76540    1.000
    C101     C        0.72460    0.60890    0.88670    1.000
    C102     C        0.64410    0.82040    0.72350    1.000
    H131     H        0.62410    0.79040    0.70630    1.000
    C103     C        0.68940    0.76340    0.79510    1.000
    C104     C        0.71240    0.66450    0.85420    1.000
    C105     C        0.68250    0.66110    0.80620    1.000
    H132     H        0.66970    0.62540    0.79300    1.000
    H133     H        0.73230    0.37630    0.96690    1.000
    H134     H        0.72840    0.37630    0.03100    1.000
    H135     H        0.78920    0.37630    0.00210    1.000
    C106     C        0.70000    0.87050    0.77660    1.000
    H136     H        0.72660    0.87920    0.80410    1.000
    C107     C        0.67140    0.71200    0.77740    1.000
    H137     H        0.65080    0.70990    0.74460    1.000
    C108     C        0.64360    0.87520    0.71120    1.000
    H138     H        0.62160    0.89020    0.68260    1.000
    C109     C        0.72200    0.76670    0.84240    1.000
    H139     H        0.73680    0.80220    0.85410    1.000
    C110     C        0.73240    0.71730    0.87200    1.000
    H140     H        0.75330    0.71960    0.90460    1.000
    H141     H        0.62230    0.31710    0.87090    1.000
    H142     H        0.57820    0.36120    0.84510    1.000
    H143     H        0.58360    0.35580    0.90900    1.000
    O45      O        0.22890    0.98450    0.46050    1.000
    O46      O        0.20840    0.06280    0.36560    1.000
    O47      O        0.24830    0.11620    0.43230    1.000
    O48      O        0.13610    0.95360    0.38010    1.000
    N23      N        0.17710    0.40820    0.24280    1.000
    N24      N        0.17900    0.31700    0.26540    1.000
    C111     C        0.22460    0.10890    0.38670    1.000
    C112     C        0.14410    0.32040    0.22350    1.000
    H144     H        0.12410    0.29040    0.20630    1.000
    C113     C        0.18940    0.26340    0.29510    1.000
    C114     C        0.21240    0.16450    0.35420    1.000
    C115     C        0.18250    0.16110    0.30620    1.000
    H145     H        0.16970    0.12540    0.29300    1.000
    H146     H        0.23230    0.87630    0.46690    1.000
    H147     H        0.22840    0.87630    0.53100    1.000
    H148     H        0.28920    0.87630    0.50210    1.000
    C116     C        0.20000    0.37050    0.27660    1.000
    H149     H        0.22660    0.37920    0.30410    1.000
    C117     C        0.17140    0.21200    0.27740    1.000
    H150     H        0.15080    0.20990    0.24460    1.000
    C118     C        0.14360    0.37520    0.21120    1.000
    H151     H        0.12160    0.39020    0.18260    1.000
    C119     C        0.22200    0.26670    0.34240    1.000
    H152     H        0.23680    0.30220    0.35410    1.000
    C120     C        0.23240    0.21730    0.37200    1.000
    H153     H        0.25330    0.21960    0.40460    1.000
    H154     H        0.12230    0.81710    0.37090    1.000
    H155     H        0.07820    0.86120    0.34510    1.000
    H156     H        0.08360    0.85580    0.40900    1.000
    O49      O        0.76550    0.47890    0.21050    1.000
    O50      O        0.68720    0.45840    0.11560    1.000
    O51      O        0.63380    0.49830    0.18230    1.000
    O52      O        0.79640    0.38610    0.13010    1.000
    N25      N        0.34180    0.42710    0.99280    1.000
    N26      N        0.43300    0.42900    0.01540    1.000
    C121     C        0.64110    0.47460    0.13670    1.000
    C122     C        0.42960    0.39410    0.97350    1.000
    H157     H        0.45960    0.37410    0.95630    1.000
    C123     C        0.48660    0.43940    0.04510    1.000
    C124     C        0.58550    0.46240    0.10420    1.000
    C125     C        0.58890    0.43250    0.05620    1.000
    H158     H        0.62460    0.41970    0.04300    1.000
    H159     H        0.87370    0.48230    0.21690    1.000
    H160     H        0.87370    0.47840    0.28100    1.000
    H161     H        0.87370    0.53920    0.25210    1.000
    C126     C        0.37950    0.45000    0.02660    1.000
    H162     H        0.37080    0.47660    0.05410    1.000
    C127     C        0.53800    0.42140    0.02740    1.000
    H163     H        0.54010    0.40080    0.99460    1.000
    C128     C        0.37480    0.39360    0.96120    1.000
    H164     H        0.35980    0.37160    0.93260    1.000
    C129     C        0.48330    0.47200    0.09240    1.000
    H165     H        0.44780    0.48680    0.10410    1.000
    C130     C        0.53270    0.48240    0.12200    1.000
    H166     H        0.53040    0.50330    0.15460    1.000
    H167     H        0.93290    0.37230    0.12090    1.000
    H168     H        0.88880    0.32820    0.09510    1.000
    H169     H        0.89420    0.33360    0.15900    1.000
    O53      O        0.26550    0.97890    0.71050    1.000
    O54      O        0.18720    0.95840    0.61560    1.000
    O55      O        0.13380    0.99830    0.68230    1.000
    O56      O        0.29640    0.88610    0.63010    1.000
    N27      N        0.84180    0.92710    0.49280    1.000
    N28      N        0.93300    0.92900    0.51540    1.000
    C131     C        0.14110    0.97460    0.63670    1.000
    C132     C        0.92960    0.89410    0.47350    1.000
    H170     H        0.95960    0.87410    0.45630    1.000
    C133     C        0.98660    0.93940    0.54510    1.000
    C134     C        0.08550    0.96240    0.60420    1.000
    C135     C        0.08890    0.93250    0.55620    1.000
    H171     H        0.12460    0.91970    0.54300    1.000
    H172     H        0.37370    0.98230    0.71690    1.000
    H173     H        0.37370    0.97840    0.78100    1.000
    H174     H        0.37370    0.03920    0.75210    1.000
    C136     C        0.87950    0.95000    0.52660    1.000
    H175     H        0.87080    0.97660    0.55410    1.000
    C137     C        0.03800    0.92140    0.52740    1.000
    H176     H        0.04010    0.90080    0.49460    1.000
    C138     C        0.87480    0.89360    0.46120    1.000
    H177     H        0.85980    0.87160    0.43260    1.000
    C139     C        0.98330    0.97200    0.59240    1.000
    H178     H        0.94780    0.98680    0.60410    1.000
    C140     C        0.03270    0.98240    0.62200    1.000
    H179     H        0.03040    0.00330    0.65460    1.000
    H180     H        0.43290    0.87230    0.62090    1.000
    H181     H        0.38880    0.82820    0.59510    1.000
    H182     H        0.39420    0.83360    0.65900    1.000
    O57      O        0.73450    0.52110    0.71050    1.000
    O58      O        0.81280    0.54160    0.61560    1.000
    O59      O        0.86620    0.50170    0.68230    1.000
    O60      O        0.70360    0.61390    0.63010    1.000
    N29      N        0.15820    0.57290    0.49280    1.000
    N30      N        0.06700    0.57100    0.51540    1.000
    C141     C        0.85890    0.52540    0.63670    1.000
    C142     C        0.07040    0.60590    0.47350    1.000
    H183     H        0.04040    0.62590    0.45630    1.000
    C143     C        0.01340    0.56060    0.54510    1.000
    C144     C        0.91450    0.53760    0.60420    1.000
    C145     C        0.91110    0.56750    0.55620    1.000
    H184     H        0.87540    0.58030    0.54300    1.000
    H185     H        0.62630    0.51770    0.71690    1.000
    H186     H        0.62630    0.52160    0.78100    1.000
    H187     H        0.62630    0.46080    0.75210    1.000
    C146     C        0.12050    0.55000    0.52660    1.000
    H188     H        0.12920    0.52340    0.55410    1.000
    C147     C        0.96200    0.57860    0.52740    1.000
    H189     H        0.95990    0.59920    0.49460    1.000
    C148     C        0.12520    0.60640    0.46120    1.000
    H190     H        0.14020    0.62840    0.43260    1.000
    C149     C        0.01670    0.52800    0.59240    1.000
    H191     H        0.05220    0.51320    0.60410    1.000
    C150     C        0.96730    0.51760    0.62200    1.000
    H192     H        0.96960    0.49670    0.65460    1.000
    H193     H        0.56710    0.62770    0.62090    1.000
    H194     H        0.61120    0.67180    0.59510    1.000
    H195     H        0.60580    0.66640    0.65900    1.000
    O61      O        0.23450    0.02110    0.21050    1.000
    O62      O        0.31280    0.04160    0.11560    1.000
    O63      O        0.36620    0.00170    0.18230    1.000
    O64      O        0.20360    0.11390    0.13010    1.000
    N31      N        0.65820    0.07290    0.99280    1.000
    N32      N        0.56700    0.07100    0.01540    1.000
    C151     C        0.35890    0.02540    0.13670    1.000
    C152     C        0.57040    0.10590    0.97350    1.000
    H196     H        0.54040    0.12590    0.95630    1.000
    C153     C        0.51340    0.06060    0.04510    1.000
    C154     C        0.41450    0.03760    0.10420    1.000
    C155     C        0.41110    0.06750    0.05620    1.000
    H197     H        0.37540    0.08030    0.04300    1.000
    H198     H        0.12630    0.01770    0.21690    1.000
    H199     H        0.12630    0.02160    0.28100    1.000
    H200     H        0.12630    0.96080    0.25210    1.000
    C156     C        0.62050    0.05000    0.02660    1.000
    H201     H        0.62920    0.02340    0.05410    1.000
    C157     C        0.46200    0.07860    0.02740    1.000
    H202     H        0.45990    0.09920    0.99460    1.000
    C158     C        0.62520    0.10640    0.96120    1.000
    H203     H        0.64020    0.12840    0.93260    1.000
    C159     C        0.51670    0.02800    0.09240    1.000
    H204     H        0.55220    0.01320    0.10410    1.000
    C160     C        0.46730    0.01760    0.12200    1.000
    H205     H        0.46960    0.99670    0.15460    1.000
    H206     H        0.06710    0.12770    0.12090    1.000
    H207     H        0.11120    0.17180    0.09510    1.000
    H208     H        0.10580    0.16640    0.15900    1.000
    O65      O        0.27110    0.48450    0.46050    1.000
    O66      O        0.29160    0.56280    0.36560    1.000
    O67      O        0.25170    0.61620    0.43230    1.000
    O68      O        0.36390    0.45360    0.38010    1.000
    N33      N        0.32290    0.90820    0.24280    1.000
    N34      N        0.32100    0.81700    0.26540    1.000
    C161     C        0.27540    0.60890    0.38670    1.000
    C162     C        0.35590    0.82040    0.22350    1.000
    H209     H        0.37590    0.79040    0.20630    1.000
    C163     C        0.31060    0.76340    0.29510    1.000
    C164     C        0.28760    0.66450    0.35420    1.000
    C165     C        0.31750    0.66110    0.30620    1.000
    H210     H        0.33030    0.62540    0.29300    1.000
    H211     H        0.26770    0.37630    0.46690    1.000
    H212     H        0.27160    0.37630    0.53100    1.000
    H213     H        0.21080    0.37630    0.50210    1.000
    C166     C        0.30000    0.87050    0.27660    1.000
    H214     H        0.27340    0.87920    0.30410    1.000
    C167     C        0.32860    0.71200    0.27740    1.000
    H215     H        0.34920    0.70990    0.24460    1.000
    C168     C        0.35640    0.87520    0.21120    1.000
    H216     H        0.37840    0.89020    0.18260    1.000
    C169     C        0.27800    0.76670    0.34240    1.000
    H217     H        0.26320    0.80220    0.35410    1.000
    C170     C        0.26760    0.71730    0.37200    1.000
    H218     H        0.24670    0.71960    0.40460    1.000
    H219     H        0.37770    0.31710    0.37090    1.000
    H220     H        0.42180    0.36120    0.34510    1.000
    H221     H        0.41640    0.35580    0.40900    1.000
    O69      O        0.77110    0.98450    0.96050    1.000
    O70      O        0.79160    0.06280    0.86560    1.000
    O71      O        0.75170    0.11620    0.93230    1.000
    O72      O        0.86390    0.95360    0.88010    1.000
    N35      N        0.82290    0.40820    0.74280    1.000
    N36      N        0.82100    0.31700    0.76540    1.000
    C171     C        0.77540    0.10890    0.88670    1.000
    C172     C        0.85590    0.32040    0.72350    1.000
    H222     H        0.87590    0.29040    0.70630    1.000
    C173     C        0.81060    0.26340    0.79510    1.000
    C174     C        0.78760    0.16450    0.85420    1.000
    C175     C        0.81750    0.16110    0.80620    1.000
    H223     H        0.83030    0.12540    0.79300    1.000
    H224     H        0.76770    0.87630    0.96690    1.000
    H225     H        0.77160    0.87630    0.03100    1.000
    H226     H        0.71080    0.87630    0.00210    1.000
    C176     C        0.80000    0.37050    0.77660    1.000
    H227     H        0.77340    0.37920    0.80410    1.000
    C177     C        0.82860    0.21200    0.77740    1.000
    H228     H        0.84920    0.20990    0.74460    1.000
    C178     C        0.85640    0.37520    0.71120    1.000
    H229     H        0.87840    0.39020    0.68260    1.000
    C179     C        0.77800    0.26670    0.84240    1.000
    H230     H        0.76320    0.30220    0.85410    1.000
    C180     C        0.76760    0.21730    0.87200    1.000
    H231     H        0.74670    0.21960    0.90460    1.000
    H232     H        0.87770    0.81710    0.87090    1.000
    H233     H        0.92180    0.86120    0.84510    1.000
    H234     H        0.91640    0.85580    0.90900    1.000
    O73      O        0.22890    0.51550    0.96050    1.000
    O74      O        0.20840    0.43720    0.86560    1.000
    O75      O        0.24830    0.38380    0.93230    1.000
    O76      O        0.13610    0.54640    0.88010    1.000
    N37      N        0.17710    0.09180    0.74280    1.000
    N38      N        0.17900    0.18300    0.76540    1.000
    C181     C        0.22460    0.39110    0.88670    1.000
    C182     C        0.14410    0.17960    0.72350    1.000
    H235     H        0.12410    0.20960    0.70630    1.000
    C183     C        0.18940    0.23660    0.79510    1.000
    C184     C        0.21240    0.33550    0.85420    1.000
    C185     C        0.18250    0.33890    0.80620    1.000
    H236     H        0.16970    0.37460    0.79300    1.000
    H237     H        0.23230    0.62370    0.96690    1.000
    H238     H        0.22840    0.62370    0.03100    1.000
    H239     H        0.28920    0.62370    0.00210    1.000
    C186     C        0.20000    0.12950    0.77660    1.000
    H240     H        0.22660    0.12080    0.80410    1.000
    C187     C        0.17140    0.28800    0.77740    1.000
    H241     H        0.15080    0.29010    0.74460    1.000
    C188     C        0.14360    0.12480    0.71120    1.000
    H242     H        0.12160    0.10980    0.68260    1.000
    C189     C        0.22200    0.23330    0.84240    1.000
    H243     H        0.23680    0.19780    0.85410    1.000
    C190     C        0.23240    0.28270    0.87200    1.000
    H244     H        0.25330    0.28040    0.90460    1.000
    H245     H        0.12230    0.68290    0.87090    1.000
    H246     H        0.07820    0.63880    0.84510    1.000
    H247     H        0.08360    0.64420    0.90900    1.000
    O77      O        0.72890    0.01550    0.46050    1.000
    O78      O        0.70840    0.93720    0.36560    1.000
    O79      O        0.74830    0.88380    0.43230    1.000
    O80      O        0.63610    0.04640    0.38010    1.000
    N39      N        0.67710    0.59180    0.24280    1.000
    N40      N        0.67900    0.68300    0.26540    1.000
    C191     C        0.72460    0.89110    0.38670    1.000
    C192     C        0.64410    0.67960    0.22350    1.000
    H248     H        0.62410    0.70960    0.20630    1.000
    C193     C        0.68940    0.73660    0.29510    1.000
    C194     C        0.71240    0.83550    0.35420    1.000
    C195     C        0.68250    0.83890    0.30620    1.000
    H249     H        0.66970    0.87460    0.29300    1.000
    H250     H        0.73230    0.12370    0.46690    1.000
    H251     H        0.72840    0.12370    0.53100    1.000
    H252     H        0.78920    0.12370    0.50210    1.000
    C196     C        0.70000    0.62950    0.27660    1.000
    H253     H        0.72660    0.62080    0.30410    1.000
    C197     C        0.67140    0.78800    0.27740    1.000
    H254     H        0.65080    0.79010    0.24460    1.000
    C198     C        0.64360    0.62480    0.21120    1.000
    H255     H        0.62160    0.60980    0.18260    1.000
    C199     C        0.72200    0.73330    0.34240    1.000
    H256     H        0.73680    0.69780    0.35410    1.000
    C200     C        0.73240    0.78270    0.37200    1.000
    H257     H        0.75330    0.78040    0.40460    1.000
    H258     H        0.62230    0.18290    0.37090    1.000
    H259     H        0.57820    0.13880    0.34510    1.000
    H260     H        0.58360    0.14420    0.40900    1.000
    O81      O        0.26550    0.52110    0.21050    1.000
    O82      O        0.18720    0.54160    0.11560    1.000
    O83      O        0.13380    0.50170    0.18230    1.000
    O84      O        0.29640    0.61390    0.13010    1.000
    N41      N        0.84180    0.57290    0.99280    1.000
    N42      N        0.93300    0.57100    0.01540    1.000
    C201     C        0.14110    0.52540    0.13670    1.000
    C202     C        0.92960    0.60590    0.97350    1.000
    H261     H        0.95960    0.62590    0.95630    1.000
    C203     C        0.98660    0.56060    0.04510    1.000
    C204     C        0.08550    0.53760    0.10420    1.000
    C205     C        0.08890    0.56750    0.05620    1.000
    H262     H        0.12460    0.58030    0.04300    1.000
    H263     H        0.37370    0.51770    0.21690    1.000
    H264     H        0.37370    0.52160    0.28100    1.000
    H265     H        0.37370    0.46080    0.25210    1.000
    C206     C        0.87950    0.55000    0.02660    1.000
    H266     H        0.87080    0.52340    0.05410    1.000
    C207     C        0.03800    0.57860    0.02740    1.000
    H267     H        0.04010    0.59920    0.99460    1.000
    C208     C        0.87480    0.60640    0.96120    1.000
    H268     H        0.85980    0.62840    0.93260    1.000
    C209     C        0.98330    0.52800    0.09240    1.000
    H269     H        0.94780    0.51320    0.10410    1.000
    C210     C        0.03270    0.51760    0.12200    1.000
    H270     H        0.03040    0.49670    0.15460    1.000
    H271     H        0.43290    0.62770    0.12090    1.000
    H272     H        0.38880    0.67180    0.09510    1.000
    H273     H        0.39420    0.66640    0.15900    1.000
    O85      O        0.76550    0.02110    0.71050    1.000
    O86      O        0.68720    0.04160    0.61560    1.000
    O87      O        0.63380    0.00170    0.68230    1.000
    O88      O        0.79640    0.11390    0.63010    1.000
    N43      N        0.34180    0.07290    0.49280    1.000
    N44      N        0.43300    0.07100    0.51540    1.000
    C211     C        0.64110    0.02540    0.63670    1.000
    C212     C        0.42960    0.10590    0.47350    1.000
    H274     H        0.45960    0.12590    0.45630    1.000
    C213     C        0.48660    0.06060    0.54510    1.000
    C214     C        0.58550    0.03760    0.60420    1.000
    C215     C        0.58890    0.06750    0.55620    1.000
    H275     H        0.62460    0.08030    0.54300    1.000
    H276     H        0.87370    0.01770    0.71690    1.000
    H277     H        0.87370    0.02160    0.78100    1.000
    H278     H        0.87370    0.96080    0.75210    1.000
    C216     C        0.37950    0.05000    0.52660    1.000
    H279     H        0.37080    0.02340    0.55410    1.000
    C217     C        0.53800    0.07860    0.52740    1.000
    H280     H        0.54010    0.09920    0.49460    1.000
    C218     C        0.37480    0.10640    0.46120    1.000
    H281     H        0.35980    0.12840    0.43260    1.000
    C219     C        0.48330    0.02800    0.59240    1.000
    H282     H        0.44780    0.01320    0.60410    1.000
    C220     C        0.53270    0.01760    0.62200    1.000
    H283     H        0.53040    0.99670    0.65460    1.000
    H284     H        0.93290    0.12770    0.62090    1.000
    H285     H        0.88880    0.17180    0.59510    1.000
    H286     H        0.89420    0.16640    0.65900    1.000
    O89      O        0.23450    0.47890    0.71050    1.000
    O90      O        0.31280    0.45840    0.61560    1.000
    O91      O        0.36620    0.49830    0.68230    1.000
    O92      O        0.20360    0.38610    0.63010    1.000
    N45      N        0.65820    0.42710    0.49280    1.000
    N46      N        0.56700    0.42900    0.51540    1.000
    C221     C        0.35890    0.47460    0.63670    1.000
    C222     C        0.57040    0.39410    0.47350    1.000
    H287     H        0.54040    0.37410    0.45630    1.000
    C223     C        0.51340    0.43940    0.54510    1.000
    C224     C        0.41450    0.46240    0.60420    1.000
    C225     C        0.41110    0.43250    0.55620    1.000
    H288     H        0.37540    0.41970    0.54300    1.000
    H289     H        0.12630    0.48230    0.71690    1.000
    H290     H        0.12630    0.47840    0.78100    1.000
    H291     H        0.12630    0.53920    0.75210    1.000
    C226     C        0.62050    0.45000    0.52660    1.000
    H292     H        0.62920    0.47660    0.55410    1.000
    C227     C        0.46200    0.42140    0.52740    1.000
    H293     H        0.45990    0.40080    0.49460    1.000
    C228     C        0.62520    0.39360    0.46120    1.000
    H294     H        0.64020    0.37160    0.43260    1.000
    C229     C        0.51670    0.47200    0.59240    1.000
    H295     H        0.55220    0.48680    0.60410    1.000
    C230     C        0.46730    0.48240    0.62200    1.000
    H296     H        0.46960    0.50330    0.65460    1.000
    H297     H        0.06710    0.37230    0.62090    1.000
    H298     H        0.11120    0.32820    0.59510    1.000
    H299     H        0.10580    0.33360    0.65900    1.000
    O93      O        0.73450    0.97890    0.21050    1.000
    O94      O        0.81280    0.95840    0.11560    1.000
    O95      O        0.86620    0.99830    0.18230    1.000
    O96      O        0.70360    0.88610    0.13010    1.000
    N47      N        0.15820    0.92710    0.99280    1.000
    N48      N        0.06700    0.92900    0.01540    1.000
    C231     C        0.85890    0.97460    0.13670    1.000
    C232     C        0.07040    0.89410    0.97350    1.000
    H300     H        0.04040    0.87410    0.95630    1.000
    C233     C        0.01340    0.93940    0.04510    1.000
    C234     C        0.91450    0.96240    0.10420    1.000
    C235     C        0.91110    0.93250    0.05620    1.000
    H301     H        0.87540    0.91970    0.04300    1.000
    H302     H        0.62630    0.98230    0.21690    1.000
    H303     H        0.62630    0.97840    0.28100    1.000
    H304     H        0.62630    0.03920    0.25210    1.000
    C236     C        0.12050    0.95000    0.02660    1.000
    H305     H        0.12920    0.97660    0.05410    1.000
    C237     C        0.96200    0.92140    0.02740    1.000
    H306     H        0.95990    0.90080    0.99460    1.000
    C238     C        0.12520    0.89360    0.96120    1.000
    H307     H        0.14020    0.87160    0.93260    1.000
    C239     C        0.01670    0.97200    0.09240    1.000
    H308     H        0.05220    0.98680    0.10410    1.000
    C240     C        0.96730    0.98240    0.12200    1.000
    H309     H        0.96960    0.00330    0.15460    1.000
    H310     H        0.56710    0.87230    0.12090    1.000
    H311     H        0.61120    0.82820    0.09510    1.000
    H312     H        0.60580    0.83360    0.15900    1.000
    O97      O        0.22890    0.48450    0.53950    1.000
    O98      O        0.20840    0.56280    0.63440    1.000
    O99      O        0.24830    0.61620    0.56770    1.000
    O100     O        0.13610    0.45360    0.61990    1.000
    N49      N        0.17710    0.90820    0.75720    1.000
    N50      N        0.17900    0.81700    0.73460    1.000
    C241     C        0.22460    0.60890    0.61330    1.000
    C242     C        0.14410    0.82040    0.77650    1.000
    H313     H        0.12410    0.79040    0.79370    1.000
    C243     C        0.18940    0.76340    0.70490    1.000
    C244     C        0.21240    0.66450    0.64580    1.000
    C245     C        0.18250    0.66110    0.69380    1.000
    H314     H        0.16970    0.62540    0.70700    1.000
    H315     H        0.23230    0.37630    0.53310    1.000
    H316     H        0.22840    0.37630    0.46900    1.000
    H317     H        0.28920    0.37630    0.49790    1.000
    C246     C        0.20000    0.87050    0.72340    1.000
    H318     H        0.22660    0.87920    0.69590    1.000
    C247     C        0.17140    0.71200    0.72260    1.000
    H319     H        0.15080    0.70990    0.75540    1.000
    C248     C        0.14360    0.87520    0.78880    1.000
    H320     H        0.12160    0.89020    0.81740    1.000
    C249     C        0.22200    0.76670    0.65760    1.000
    H321     H        0.23680    0.80220    0.64590    1.000
    C250     C        0.23240    0.71730    0.62800    1.000
    H322     H        0.25330    0.71960    0.59540    1.000
    H323     H        0.12230    0.31710    0.62910    1.000
    H324     H        0.07820    0.36120    0.65490    1.000
    H325     H        0.08360    0.35580    0.59100    1.000
    O101     O        0.72890    0.98450    0.03950    1.000
    O102     O        0.70840    0.06280    0.13440    1.000
    O103     O        0.74830    0.11620    0.06770    1.000
    O104     O        0.63610    0.95360    0.11990    1.000
    N51      N        0.67710    0.40820    0.25720    1.000
    N52      N        0.67900    0.31700    0.23460    1.000
    C251     C        0.72460    0.10890    0.11330    1.000
    C252     C        0.64410    0.32040    0.27650    1.000
    H326     H        0.62410    0.29040    0.29370    1.000
    C253     C        0.68940    0.26340    0.20490    1.000
    C254     C        0.71240    0.16450    0.14580    1.000
    C255     C        0.68250    0.16110    0.19380    1.000
    H327     H        0.66970    0.12540    0.20700    1.000
    H328     H        0.73230    0.87630    0.03310    1.000
    H329     H        0.72840    0.87630    0.96900    1.000
    H330     H        0.78920    0.87630    0.99790    1.000
    C256     C        0.70000    0.37050    0.22340    1.000
    H331     H        0.72660    0.37920    0.19590    1.000
    C257     C        0.67140    0.21200    0.22260    1.000
    H332     H        0.65080    0.20990    0.25540    1.000
    C258     C        0.64360    0.37520    0.28880    1.000
    H333     H        0.62160    0.39020    0.31740    1.000
    C259     C        0.72200    0.26670    0.15760    1.000
    H334     H        0.73680    0.30220    0.14590    1.000
    C260     C        0.73240    0.21730    0.12800    1.000
    H335     H        0.75330    0.21960    0.09540    1.000
    H336     H        0.62230    0.81710    0.12910    1.000
    H337     H        0.57820    0.86120    0.15490    1.000
    H338     H        0.58360    0.85580    0.09100    1.000
    O105     O        0.27110    0.51550    0.03950    1.000
    O106     O        0.29160    0.43720    0.13440    1.000
    O107     O        0.25170    0.38380    0.06770    1.000
    O108     O        0.36390    0.54640    0.11990    1.000
    N53      N        0.32290    0.09180    0.25720    1.000
    N54      N        0.32100    0.18300    0.23460    1.000
    C261     C        0.27540    0.39110    0.11330    1.000
    C262     C        0.35590    0.17960    0.27650    1.000
    H339     H        0.37590    0.20960    0.29370    1.000
    C263     C        0.31060    0.23660    0.20490    1.000
    C264     C        0.28760    0.33550    0.14580    1.000
    C265     C        0.31750    0.33890    0.19380    1.000
    H340     H        0.33030    0.37460    0.20700    1.000
    H341     H        0.26770    0.62370    0.03310    1.000
    H342     H        0.27160    0.62370    0.96900    1.000
    H343     H        0.21080    0.62370    0.99790    1.000
    C266     C        0.30000    0.12950    0.22340    1.000
    H344     H        0.27340    0.12080    0.19590    1.000
    C267     C        0.32860    0.28800    0.22260    1.000
    H345     H        0.34920    0.29010    0.25540    1.000
    C268     C        0.35640    0.12480    0.28880    1.000
    H346     H        0.37840    0.10980    0.31740    1.000
    C269     C        0.27800    0.23330    0.15760    1.000
    H347     H        0.26320    0.19780    0.14590    1.000
    C270     C        0.26760    0.28270    0.12800    1.000
    H348     H        0.24670    0.28040    0.09540    1.000
    H349     H        0.37770    0.68290    0.12910    1.000
    H350     H        0.42180    0.63880    0.15490    1.000
    H351     H        0.41640    0.64420    0.09100    1.000
    O109     O        0.77110    0.01550    0.53950    1.000
    O110     O        0.79160    0.93720    0.63440    1.000
    O111     O        0.75170    0.88380    0.56770    1.000
    O112     O        0.86390    0.04640    0.61990    1.000
    N55      N        0.82290    0.59180    0.75720    1.000
    N56      N        0.82100    0.68300    0.73460    1.000
    C271     C        0.77540    0.89110    0.61330    1.000
    C272     C        0.85590    0.67960    0.77650    1.000
    H352     H        0.87590    0.70960    0.79370    1.000
    C273     C        0.81060    0.73660    0.70490    1.000
    C274     C        0.78760    0.83550    0.64580    1.000
    C275     C        0.81750    0.83890    0.69380    1.000
    H353     H        0.83030    0.87460    0.70700    1.000
    H354     H        0.76770    0.12370    0.53310    1.000
    H355     H        0.77160    0.12370    0.46900    1.000
    H356     H        0.71080    0.12370    0.49790    1.000
    C276     C        0.80000    0.62950    0.72340    1.000
    H357     H        0.77340    0.62080    0.69590    1.000
    C277     C        0.82860    0.78800    0.72260    1.000
    H358     H        0.84920    0.79010    0.75540    1.000
    C278     C        0.85640    0.62480    0.78880    1.000
    H359     H        0.87840    0.60980    0.81740    1.000
    C279     C        0.77800    0.73330    0.65760    1.000
    H360     H        0.76320    0.69780    0.64590    1.000
    C280     C        0.76760    0.78270    0.62800    1.000
    H361     H        0.74670    0.78040    0.59540    1.000
    H362     H        0.87770    0.18290    0.62910    1.000
    H363     H        0.92180    0.13880    0.65490    1.000
    H364     H        0.91640    0.14420    0.59100    1.000
    O113     O        0.23450    0.52110    0.78950    1.000
    O114     O        0.31280    0.54160    0.88440    1.000
    O115     O        0.36620    0.50170    0.81770    1.000
    O116     O        0.20360    0.61390    0.86990    1.000
    N57      N        0.65820    0.57290    0.00720    1.000
    N58      N        0.56700    0.57100    0.98460    1.000
    C281     C        0.35890    0.52540    0.86330    1.000
    C282     C        0.57040    0.60590    0.02650    1.000
    H365     H        0.54040    0.62590    0.04370    1.000
    C283     C        0.51340    0.56060    0.95490    1.000
    C284     C        0.41450    0.53760    0.89580    1.000
    C285     C        0.41110    0.56750    0.94380    1.000
    H366     H        0.37540    0.58030    0.95700    1.000
    H367     H        0.12630    0.51770    0.78310    1.000
    H368     H        0.12630    0.52160    0.71900    1.000
    H369     H        0.12630    0.46080    0.74790    1.000
    C286     C        0.62050    0.55000    0.97340    1.000
    H370     H        0.62920    0.52340    0.94590    1.000
    C287     C        0.46200    0.57860    0.97260    1.000
    H371     H        0.45990    0.59920    0.00540    1.000
    C288     C        0.62520    0.60640    0.03880    1.000
    H372     H        0.64020    0.62840    0.06740    1.000
    C289     C        0.51670    0.52800    0.90760    1.000
    H373     H        0.55220    0.51320    0.89590    1.000
    C290     C        0.46730    0.51760    0.87800    1.000
    H374     H        0.46960    0.49670    0.84540    1.000
    H375     H        0.06710    0.62770    0.87910    1.000
    H376     H        0.11120    0.67180    0.90490    1.000
    H377     H        0.10580    0.66640    0.84100    1.000
    O117     O        0.73450    0.02110    0.28950    1.000
    O118     O        0.81280    0.04160    0.38440    1.000
    O119     O        0.86620    0.00170    0.31770    1.000
    O120     O        0.70360    0.11390    0.36990    1.000
    N59      N        0.15820    0.07290    0.50720    1.000
    N60      N        0.06700    0.07100    0.48460    1.000
    C291     C        0.85890    0.02540    0.36330    1.000
    C292     C        0.07040    0.10590    0.52650    1.000
    H378     H        0.04040    0.12590    0.54370    1.000
    C293     C        0.01340    0.06060    0.45490    1.000
    C294     C        0.91450    0.03760    0.39580    1.000
    C295     C        0.91110    0.06750    0.44380    1.000
    H379     H        0.87540    0.08030    0.45700    1.000
    H380     H        0.62630    0.01770    0.28310    1.000
    H381     H        0.62630    0.02160    0.21900    1.000
    H382     H        0.62630    0.96080    0.24790    1.000
    C296     C        0.12050    0.05000    0.47340    1.000
    H383     H        0.12920    0.02340    0.44590    1.000
    C297     C        0.96200    0.07860    0.47260    1.000
    H384     H        0.95990    0.09920    0.50540    1.000
    C298     C        0.12520    0.10640    0.53880    1.000
    H385     H        0.14020    0.12840    0.56740    1.000
    C299     C        0.01670    0.02800    0.40760    1.000
    H386     H        0.05220    0.01320    0.39590    1.000
    C300     C        0.96730    0.01760    0.37800    1.000
    H387     H        0.96960    0.99670    0.34540    1.000
    H388     H        0.56710    0.12770    0.37910    1.000
    H389     H        0.61120    0.17180    0.40490    1.000
    H390     H        0.60580    0.16640    0.34100    1.000
    O121     O        0.26550    0.47890    0.28950    1.000
    O122     O        0.18720    0.45840    0.38440    1.000
    O123     O        0.13380    0.49830    0.31770    1.000
    O124     O        0.29640    0.38610    0.36990    1.000
    N61      N        0.84180    0.42710    0.50720    1.000
    N62      N        0.93300    0.42900    0.48460    1.000
    C301     C        0.14110    0.47460    0.36330    1.000
    C302     C        0.92960    0.39410    0.52650    1.000
    H391     H        0.95960    0.37410    0.54370    1.000
    C303     C        0.98660    0.43940    0.45490    1.000
    C304     C        0.08550    0.46240    0.39580    1.000
    C305     C        0.08890    0.43250    0.44380    1.000
    H392     H        0.12460    0.41970    0.45700    1.000
    H393     H        0.37370    0.48230    0.28310    1.000
    H394     H        0.37370    0.47840    0.21900    1.000
    H395     H        0.37370    0.53920    0.24790    1.000
    C306     C        0.87950    0.45000    0.47340    1.000
    H396     H        0.87080    0.47660    0.44590    1.000
    C307     C        0.03800    0.42140    0.47260    1.000
    H397     H        0.04010    0.40080    0.50540    1.000
    C308     C        0.87480    0.39360    0.53880    1.000
    H398     H        0.85980    0.37160    0.56740    1.000
    C309     C        0.98330    0.47200    0.40760    1.000
    H399     H        0.94780    0.48680    0.39590    1.000
    C310     C        0.03270    0.48240    0.37800    1.000
    H400     H        0.03040    0.50330    0.34540    1.000
    H401     H        0.43290    0.37230    0.37910    1.000
    H402     H        0.38880    0.32820    0.40490    1.000
    H403     H        0.39420    0.33360    0.34100    1.000
    O125     O        0.76550    0.97890    0.78950    1.000
    O126     O        0.68720    0.95840    0.88440    1.000
    O127     O        0.63380    0.99830    0.81770    1.000
    O128     O        0.79640    0.88610    0.86990    1.000
    N63      N        0.34180    0.92710    0.00720    1.000
    N64      N        0.43300    0.92900    0.98460    1.000
    C311     C        0.64110    0.97460    0.86330    1.000
    C312     C        0.42960    0.89410    0.02650    1.000
    H404     H        0.45960    0.87410    0.04370    1.000
    C313     C        0.48660    0.93940    0.95490    1.000
    C314     C        0.58550    0.96240    0.89580    1.000
    C315     C        0.58890    0.93250    0.94380    1.000
    H405     H        0.62460    0.91970    0.95700    1.000
    H406     H        0.87370    0.98230    0.78310    1.000
    H407     H        0.87370    0.97840    0.71900    1.000
    H408     H        0.87370    0.03920    0.74790    1.000
    C316     C        0.37950    0.95000    0.97340    1.000
    H409     H        0.37080    0.97660    0.94590    1.000
    C317     C        0.53800    0.92140    0.97260    1.000
    H410     H        0.54010    0.90080    0.00540    1.000
    C318     C        0.37480    0.89360    0.03880    1.000
    H411     H        0.35980    0.87160    0.06740    1.000
    C319     C        0.48330    0.97200    0.90760    1.000
    H412     H        0.44780    0.98680    0.89590    1.000
    C320     C        0.53270    0.98240    0.87800    1.000
    H413     H        0.53040    0.00330    0.84540    1.000
    H414     H        0.93290    0.87230    0.87910    1.000
    H415     H        0.88880    0.82820    0.90490    1.000
    H416     H        0.89420    0.83360    0.84100    1.000
    Co1      Co       0.72621    0.52379    0.62500    1.000
    C321     C        0.65170    0.59830    0.62500    1.000
    C322     C        0.60450    0.64550    0.62500    1.000
    Co2      Co       0.22621    0.02379    0.12500    1.000
    C323     C        0.15170    0.09830    0.12500    1.000
    C324     C        0.10450    0.14550    0.12500    1.000
    Co3      Co       0.77379    0.47621    0.12500    1.000
    C325     C        0.84830    0.40170    0.12500    1.000
    C326     C        0.89550    0.35450    0.12500    1.000
    Co4      Co       0.27379    0.97621    0.62500    1.000
    C327     C        0.34830    0.90170    0.62500    1.000
    C328     C        0.39550    0.85450    0.62500    1.000
    Co5      Co       0.72621    0.47621    0.87500    1.000
    C329     C        0.65170    0.40170    0.87500    1.000
    C330     C        0.60450    0.35450    0.87500    1.000
    Co6      Co       0.22621    0.97621    0.37500    1.000
    C331     C        0.15170    0.90170    0.37500    1.000
    C332     C        0.10450    0.85450    0.37500    1.000
    Co7      Co       0.77379    0.52379    0.37500    1.000
    C333     C        0.84830    0.59830    0.37500    1.000
    C334     C        0.89550    0.64550    0.37500    1.000
    Co8      Co       0.27379    0.02379    0.87500    1.000
    C335     C        0.34830    0.09830    0.87500    1.000
    C336     C        0.39550    0.14550    0.87500    1.000
    Co9      Co       0.27379    0.47621    0.37500    1.000
    C337     C        0.34830    0.40170    0.37500    1.000
    C338     C        0.39550    0.35450    0.37500    1.000
    Co10     Co       0.77379    0.97621    0.87500    1.000
    C339     C        0.84830    0.90170    0.87500    1.000
    C340     C        0.89550    0.85450    0.87500    1.000
    Co11     Co       0.22621    0.52379    0.87500    1.000
    C341     C        0.15170    0.59830    0.87500    1.000
    C342     C        0.10450    0.64550    0.87500    1.000
    Co12     Co       0.72621    0.02379    0.37500    1.000
    C343     C        0.65170    0.09830    0.37500    1.000
    C344     C        0.60450    0.14550    0.37500    1.000
    Co13     Co       0.27379    0.52379    0.12500    1.000
    C345     C        0.34830    0.59830    0.12500    1.000
    C346     C        0.39550    0.64550    0.12500    1.000
    Co14     Co       0.77379    0.02379    0.62500    1.000
    C347     C        0.84830    0.09830    0.62500    1.000
    C348     C        0.89550    0.14550    0.62500    1.000
    Co15     Co       0.22621    0.47621    0.62500    1.000
    C349     C        0.15170    0.40170    0.62500    1.000
    C350     C        0.10450    0.35450    0.62500    1.000
    Co16     Co       0.72621    0.97621    0.12500    1.000
    C351     C        0.65170    0.90170    0.12500    1.000
    C352     C        0.60450    0.85450    0.12500    1.000
    Co17     Co       0.75000    0.43353    0.50000    1.000
    C353     C        0.75000    0.54390    0.50000    1.000
    C354     C        0.75000    0.60980    0.50000    1.000
    Co18     Co       0.25000    0.93353    0.00000    1.000
    C355     C        0.25000    0.04390    0.00000    1.000
    C356     C        0.25000    0.10980    0.00000    1.000
    Co19     Co       0.75000    0.56647    0.00000    1.000
    C357     C        0.75000    0.45610    0.00000    1.000
    C358     C        0.75000    0.39020    0.00000    1.000
    Co20     Co       0.25000    0.06647    0.50000    1.000
    C359     C        0.25000    0.95610    0.50000    1.000
    C360     C        0.25000    0.89020    0.50000    1.000
    Co21     Co       0.81647    0.50000    0.75000    1.000
    C361     C        0.70610    0.50000    0.75000    1.000
    C362     C        0.64020    0.50000    0.75000    1.000
    Co22     Co       0.31647    0.00000    0.25000    1.000
    C363     C        0.20610    0.00000    0.25000    1.000
    C364     C        0.14020    0.00000    0.25000    1.000
    Co23     Co       0.68353    0.50000    0.25000    1.000
    C365     C        0.79390    0.50000    0.25000    1.000
    C366     C        0.85980    0.50000    0.25000    1.000
    Co24     Co       0.18353    0.00000    0.75000    1.000
    C367     C        0.29390    0.00000    0.75000    1.000
    C368     C        0.35980    0.00000    0.75000    1.000
    Co25     Co       0.25000    0.56647    0.50000    1.000
    C369     C        0.25000    0.45610    0.50000    1.000
    C370     C        0.25000    0.39020    0.50000    1.000
    Co26     Co       0.75000    0.06647    0.00000    1.000
    C371     C        0.75000    0.95610    0.00000    1.000
    C372     C        0.75000    0.89020    0.00000    1.000
    Co27     Co       0.25000    0.43353    0.00000    1.000
    C373     C        0.25000    0.54390    0.00000    1.000
    C374     C        0.25000    0.60980    0.00000    1.000
    Co28     Co       0.75000    0.93353    0.50000    1.000
    C375     C        0.75000    0.04390    0.50000    1.000
    C376     C        0.75000    0.10980    0.50000    1.000
    Co29     Co       0.18353    0.50000    0.25000    1.000
    C377     C        0.29390    0.50000    0.25000    1.000
    C378     C        0.35980    0.50000    0.25000    1.000
    Co30     Co       0.68353    0.00000    0.75000    1.000
    C379     C        0.79390    0.00000    0.75000    1.000
    C380     C        0.85980    0.00000    0.75000    1.000
    Co31     Co       0.31647    0.50000    0.75000    1.000
    C381     C        0.20610    0.50000    0.75000    1.000
    C382     C        0.14020    0.50000    0.75000    1.000
    Co32     Co       0.81647    0.00000    0.25000    1.000
    C383     C        0.70610    0.00000    0.25000    1.000
    C384     C        0.64020    0.00000    0.25000    1.000
