# CIF file generated by openbabel 3.1.0, see https://openbabel.org
data_I
_chemical_name_common 'image0'
_cell_length_a 19.6801
_cell_length_b 15.1165
_cell_length_c 6.6716
_cell_angle_alpha 90
_cell_angle_beta 103.757
_cell_angle_gamma 90
_space_group_name_H-M_alt 'P 1'
_space_group_name_Hall 'P 1'
loop_
    _symmetry_equiv_pos_as_xyz
    x,y,z
loop_
    _atom_site_label
    _atom_site_type_symbol
    _atom_site_fract_x
    _atom_site_fract_y
    _atom_site_fract_z
    _atom_site_occupancy
    Ga1      Ga       0.49630    0.25000    0.51410    1.000
    O1       O        0.49960    0.31470    0.25810    1.000
    O2       O        0.00090    0.55530    0.25180    1.000
    O3       O        0.91570    0.07770    0.86910    1.000
    O4       O        0.93180    0.08210    0.54930    1.000
    O5       O        0.55590    0.14850    0.44290    1.000
    O6       O        0.58670    0.18360    0.14700    1.000
    C1       C        0.81820    0.10630    0.58750    1.000
    C2       C        0.77080    0.10450    0.71140    1.000
    C3       C        0.69970    0.12010    0.63370    1.000
    C4       C        0.67490    0.13820    0.42660    1.000
    C5       C        0.72150    0.14000    0.30380    1.000
    C6       C        0.79250    0.12450    0.38100    1.000
    C7       C        0.89390    0.08780    0.67590    1.000
    C8       C        0.60040    0.15730    0.33350    1.000
    H1       H        0.78790    0.09130    0.85840    1.000
    H2       H        0.66790    0.11860    0.72690    1.000
    H3       H        0.70390    0.15340    0.15760    1.000
    H4       H        0.82410    0.12620    0.28730    1.000
    O7       O        0.40800    0.30030    0.87120    1.000
    O8       O        0.43570    0.35180    0.57560    1.000
    O9       O        0.05680    0.39930    0.44480    1.000
    O10      O        0.08850    0.43140    0.14050    1.000
    C9       C        0.31750    0.35480    0.59890    1.000
    C10      C        0.26610    0.33900    0.70900    1.000
    C11      C        0.19480    0.35600    0.62370    1.000
    C12      C        0.17600    0.38930    0.42510    1.000
    C13      C        0.22660    0.40490    0.31560    1.000
    C14      C        0.29790    0.38820    0.39930    1.000
    C15      C        0.39300    0.33500    0.68930    1.000
    C16      C        0.10120    0.40850    0.33130    1.000
    H5       H        0.28030    0.31520    0.84920    1.000
    H6       H        0.15940    0.34510    0.70280    1.000
    H7       H        0.21200    0.42880    0.17570    1.000
    H8       H        0.33300    0.39950    0.31910    1.000
    H9       H        0.49500    0.37370    0.27600    1.000
    H10      H        0.99500    0.61460    0.26300    1.000
    Ga2      Ga       0.50370    0.75000    0.98590    1.000
    O11      O        0.50040    0.81470    0.24190    1.000
    O12      O        0.99910    0.05530    0.24820    1.000
    O13      O        0.08430    0.57770    0.63090    1.000
    O14      O        0.06820    0.58210    0.95070    1.000
    O15      O        0.44410    0.64850    0.05710    1.000
    O16      O        0.41330    0.68360    0.35300    1.000
    C17      C        0.18180    0.60630    0.91250    1.000
    C18      C        0.22920    0.60450    0.78860    1.000
    C19      C        0.30030    0.62010    0.86630    1.000
    C20      C        0.32510    0.63820    0.07340    1.000
    C21      C        0.27850    0.64000    0.19620    1.000
    C22      C        0.20750    0.62450    0.11900    1.000
    C23      C        0.10610    0.58780    0.82410    1.000
    C24      C        0.39960    0.65730    0.16650    1.000
    H11      H        0.21210    0.59130    0.64160    1.000
    H12      H        0.33210    0.61860    0.77310    1.000
    H13      H        0.29610    0.65340    0.34240    1.000
    H14      H        0.17590    0.62620    0.21270    1.000
    O17      O        0.59200    0.80030    0.62880    1.000
    O18      O        0.56430    0.85180    0.92440    1.000
    O19      O        0.94320    0.89930    0.05520    1.000
    O20      O        0.91150    0.93140    0.35950    1.000
    C25      C        0.68250    0.85480    0.90110    1.000
    C26      C        0.73390    0.83900    0.79100    1.000
    C27      C        0.80520    0.85600    0.87630    1.000
    C28      C        0.82400    0.88930    0.07490    1.000
    C29      C        0.77340    0.90490    0.18440    1.000
    C30      C        0.70210    0.88820    0.10070    1.000
    C31      C        0.60700    0.83500    0.81070    1.000
    C32      C        0.89880    0.90850    0.16870    1.000
    H15      H        0.71970    0.81520    0.65080    1.000
    H16      H        0.84060    0.84510    0.79720    1.000
    H17      H        0.78800    0.92880    0.32430    1.000
    H18      H        0.66700    0.89950    0.18090    1.000
    H19      H        0.50500    0.87370    0.22400    1.000
    H20      H        0.00500    0.11460    0.23700    1.000
    Ga3      Ga       0.50370    0.75000    0.48590    1.000
    O21      O        0.50040    0.68530    0.74190    1.000
    O22      O        0.99910    0.44470    0.74820    1.000
    O23      O        0.08430    0.92230    0.13090    1.000
    O24      O        0.06820    0.91790    0.45070    1.000
    O25      O        0.44410    0.85150    0.55710    1.000
    O26      O        0.41330    0.81640    0.85300    1.000
    C33      C        0.18180    0.89370    0.41250    1.000
    C34      C        0.22920    0.89550    0.28860    1.000
    C35      C        0.30030    0.87990    0.36630    1.000
    C36      C        0.32510    0.86180    0.57340    1.000
    C37      C        0.27850    0.86000    0.69620    1.000
    C38      C        0.20750    0.87550    0.61900    1.000
    C39      C        0.10610    0.91220    0.32410    1.000
    C40      C        0.39960    0.84270    0.66650    1.000
    H21      H        0.21210    0.90870    0.14160    1.000
    H22      H        0.33210    0.88140    0.27310    1.000
    H23      H        0.29610    0.84660    0.84240    1.000
    H24      H        0.17590    0.87380    0.71270    1.000
    O27      O        0.59200    0.69970    0.12880    1.000
    O28      O        0.56430    0.64820    0.42440    1.000
    O29      O        0.94320    0.60070    0.55520    1.000
    O30      O        0.91150    0.56860    0.85950    1.000
    C41      C        0.68250    0.64520    0.40110    1.000
    C42      C        0.73390    0.66100    0.29100    1.000
    C43      C        0.80520    0.64400    0.37630    1.000
    C44      C        0.82400    0.61070    0.57490    1.000
    C45      C        0.77340    0.59510    0.68440    1.000
    C46      C        0.70210    0.61180    0.60070    1.000
    C47      C        0.60700    0.66500    0.31070    1.000
    C48      C        0.89880    0.59150    0.66870    1.000
    H25      H        0.71970    0.68480    0.15080    1.000
    H26      H        0.84060    0.65490    0.29720    1.000
    H27      H        0.78800    0.57120    0.82430    1.000
    H28      H        0.66700    0.60050    0.68090    1.000
    H29      H        0.50500    0.62630    0.72400    1.000
    H30      H        0.00500    0.38540    0.73700    1.000
    Ga4      Ga       0.49630    0.25000    0.01410    1.000
    O31      O        0.49960    0.18530    0.75810    1.000
    O32      O        0.00090    0.94470    0.75180    1.000
    O33      O        0.91570    0.42230    0.36910    1.000
    O34      O        0.93180    0.41790    0.04930    1.000
    O35      O        0.55590    0.35150    0.94290    1.000
    O36      O        0.58670    0.31640    0.64700    1.000
    C49      C        0.81820    0.39370    0.08750    1.000
    C50      C        0.77080    0.39550    0.21140    1.000
    C51      C        0.69970    0.37990    0.13370    1.000
    C52      C        0.67490    0.36180    0.92660    1.000
    C53      C        0.72150    0.36000    0.80380    1.000
    C54      C        0.79250    0.37550    0.88100    1.000
    C55      C        0.89390    0.41220    0.17590    1.000
    C56      C        0.60040    0.34270    0.83350    1.000
    H31      H        0.78790    0.40870    0.35840    1.000
    H32      H        0.66790    0.38140    0.22690    1.000
    H33      H        0.70390    0.34660    0.65760    1.000
    H34      H        0.82410    0.37380    0.78730    1.000
    O37      O        0.40800    0.19970    0.37120    1.000
    O38      O        0.43570    0.14820    0.07560    1.000
    O39      O        0.05680    0.10070    0.94480    1.000
    O40      O        0.08850    0.06860    0.64050    1.000
    C57      C        0.31750    0.14520    0.09890    1.000
    C58      C        0.26610    0.16100    0.20900    1.000
    C59      C        0.19480    0.14400    0.12370    1.000
    C60      C        0.17600    0.11070    0.92510    1.000
    C61      C        0.22660    0.09510    0.81560    1.000
    C62      C        0.29790    0.11180    0.89930    1.000
    C63      C        0.39300    0.16500    0.18930    1.000
    C64      C        0.10120    0.09150    0.83130    1.000
    H35      H        0.28030    0.18480    0.34920    1.000
    H36      H        0.15940    0.15490    0.20280    1.000
    H37      H        0.21200    0.07120    0.67570    1.000
    H38      H        0.33300    0.10050    0.81910    1.000
    H39      H        0.49500    0.12630    0.77600    1.000
    H40      H        0.99500    0.88540    0.76300    1.000
    Ga5      Ga       0.00000    0.50000    0.00000    1.000
    Ga6      Ga       0.00000    0.00000    0.50000    1.000
    Ga7      Ga       0.00000    0.50000    0.50000    1.000
    Ga8      Ga       0.00000    0.00000    0.00000    1.000
