# CIF file generated by openbabel 3.1.0, see https://openbabel.org
data_I
_chemical_name_common 'CIJVOH01_clean'
_cell_length_a 8.4149
_cell_length_b 9.813
_cell_length_c 21.028
_cell_angle_alpha 90
_cell_angle_beta 90
_cell_angle_gamma 90
_space_group_name_H-M_alt 'P 1'
_space_group_name_Hall 'P 1'
loop_
    _symmetry_equiv_pos_as_xyz
    x,y,z
loop_
    _atom_site_label
    _atom_site_type_symbol
    _atom_site_fract_x
    _atom_site_fract_y
    _atom_site_fract_z
    _atom_site_occupancy
    Cd1      Cd       0.49599    0.10771    0.78302    1.000
    Cd2      Cd       0.30572    0.66271    0.97726    1.000
    Cd3      Cd       0.00401    0.89229    0.28302    1.000
    Cd4      Cd       0.19428    0.33729    0.47726    1.000
    Cd5      Cd       0.50401    0.60771    0.71698    1.000
    Cd6      Cd       0.69428    0.16271    0.52274    1.000
    Cd7      Cd       0.99599    0.39229    0.21698    1.000
    Cd8      Cd       0.80572    0.83729    0.02274    1.000
    H1       H        0.78290    0.50360    0.84610    1.000
    H2       H        0.66370    0.41530    0.93750    1.000
    H3       H        0.43600    0.40630    0.91700    1.000
    H4       H        0.69000    0.67400    0.81010    1.000
    H5       H        0.71710    0.49640    0.34610    1.000
    H6       H        0.83630    0.58470    0.43750    1.000
    H7       H        0.06400    0.59370    0.41700    1.000
    H8       H        0.81000    0.32600    0.31010    1.000
    H9       H        0.21710    0.00360    0.65390    1.000
    H10      H        0.33630    0.91530    0.56250    1.000
    H11      H        0.56400    0.90630    0.58300    1.000
    H12      H        0.31000    0.17400    0.68990    1.000
    H13      H        0.28290    0.99640    0.15390    1.000
    H14      H        0.16370    0.08470    0.06250    1.000
    H15      H        0.93600    0.09370    0.08300    1.000
    H16      H        0.19000    0.82600    0.18990    1.000
    C1       C        0.59890    0.38310    0.81294    1.000
    C2       C        0.66670    0.50640    0.84857    1.000
    C3       C        0.61630    0.49720    0.91872    1.000
    C4       C        0.67390    0.62150    0.95548    1.000
    C5       C        0.90110    0.61690    0.31294    1.000
    C6       C        0.83330    0.49360    0.34857    1.000
    C7       C        0.88370    0.50280    0.41872    1.000
    C8       C        0.82610    0.37850    0.45548    1.000
    C9       C        0.40110    0.88310    0.68706    1.000
    C10      C        0.33330    0.00640    0.65143    1.000
    C11      C        0.38370    0.99720    0.58128    1.000
    C12      C        0.32610    0.12150    0.54452    1.000
    C13      C        0.09890    0.11690    0.18706    1.000
    C14      C        0.16670    0.99360    0.15143    1.000
    C15      C        0.11630    0.00280    0.08128    1.000
    C16      C        0.17390    0.87850    0.04452    1.000
    O1       O        0.60240    0.27247    0.84228    1.000
    O2       O        0.54570    0.39690    0.75779    1.000
    O3       O        0.61270    0.63070    0.82191    1.000
    O4       O        0.44850    0.48793    0.92358    1.000
    O5       O        0.57810    0.69855    0.98307    1.000
    O6       O        0.82130    0.64310    0.95663    1.000
    O7       O        0.89760    0.72753    0.34228    1.000
    O8       O        0.95430    0.60310    0.25779    1.000
    O9       O        0.88730    0.36930    0.32191    1.000
    O10      O        0.05150    0.51207    0.42358    1.000
    O11      O        0.92190    0.30145    0.48307    1.000
    O12      O        0.67870    0.35690    0.45663    1.000
    O13      O        0.39760    0.77247    0.65772    1.000
    O14      O        0.45430    0.89690    0.74221    1.000
    O15      O        0.38730    0.13070    0.67809    1.000
    O16      O        0.55150    0.98793    0.57642    1.000
    O17      O        0.42190    0.19855    0.51693    1.000
    O18      O        0.17870    0.14310    0.54337    1.000
    O19      O        0.10240    0.22753    0.15772    1.000
    O20      O        0.04570    0.10310    0.24221    1.000
    O21      O        0.11270    0.86930    0.17809    1.000
    O22      O        0.94850    0.01207    0.07642    1.000
    O23      O        0.07810    0.80145    0.01693    1.000
    O24      O        0.32130    0.85690    0.04337    1.000
