# CIF file generated by openbabel 3.1.0, see https://openbabel.org
data_I
_chemical_name_common 'YARSIV_clean'
_cell_length_a 12.03
_cell_length_b 12.8542
_cell_length_c 12.8542
_cell_angle_alpha 108.011
_cell_angle_beta 106.135
_cell_angle_gamma 106.135
_space_group_name_H-M_alt 'P 1'
_space_group_name_Hall 'P 1'
loop_
    _symmetry_equiv_pos_as_xyz
    x,y,z
loop_
    _atom_site_label
    _atom_site_type_symbol
    _atom_site_fract_x
    _atom_site_fract_y
    _atom_site_fract_z
    _atom_site_occupancy
    Zn1      Zn       0.99048    0.25481    0.48877    1.000
    Zn2      Zn       0.50952    0.51123    0.74519    1.000
    Zn3      Zn       0.75000    0.78027    0.21973    1.000
    H1       H        0.68400    0.33540    0.18260    1.000
    H2       H        0.80100    0.44990    0.91410    1.000
    H3       H        0.97500    0.24040    0.24160    1.000
    H4       H        0.91900    0.48510    0.61290    1.000
    H5       H        0.96200    0.23970    0.70630    1.000
    H6       H        0.77000    0.41780    0.07420    1.000
    H7       H        0.74900    0.31900    0.38100    1.000
    H8       H        0.86800    0.50440    0.79360    1.000
    H9       H        0.93000    0.18800    0.03600    1.000
    H10      H        0.97400    0.22600    0.88000    1.000
    H11      H        0.81600    0.81740    0.66460    1.000
    H12      H        0.69900    0.08590    0.55010    1.000
    H13      H        0.52500    0.75840    0.75960    1.000
    H14      H        0.58100    0.38710    0.51490    1.000
    H15      H        0.53800    0.29370    0.76030    1.000
    H16      H        0.73000    0.92580    0.58220    1.000
    H17      H        0.75100    0.61900    0.68100    1.000
    H18      H        0.63200    0.20640    0.49560    1.000
    H19      H        0.57000    0.96400    0.81200    1.000
    H20      H        0.52600    0.12000    0.77400    1.000
    C1       C        0.91890    0.44108    0.65892    1.000
    C2       C        0.94490    0.30295    0.70885    1.000
    C3       C        0.75160    0.31370    0.22150    1.000
    C4       C        0.82810    0.00849    0.38591    1.000
    C5       C        0.84680    0.29985    0.06975    1.000
    C6       C        0.92780    0.01217    0.33063    1.000
    C7       C        0.90970    0.26069    0.24951    1.000
    C8       C        0.88880    0.34261    0.88439    1.000
    C9       C        0.80730    0.37762    0.03478    1.000
    C10      C        0.92920    0.26305    0.91935    1.000
    C11      C        0.90610    0.24081    0.01179    1.000
    C12      C        0.82760    0.39852    0.94108    1.000
    C13      C        0.89390    0.45487    0.75633    1.000
    C14      C        0.78360    0.30380    0.32500    1.000
    C15      C        0.58110    0.34108    0.55892    1.000
    C16      C        0.55510    0.29115    0.69705    1.000
    C17      C        0.74840    0.77850    0.68630    1.000
    C18      C        0.67190    0.61409    0.99151    1.000
    C19      C        0.65320    0.93025    0.70015    1.000
    C20      C        0.57220    0.66937    0.98783    1.000
    C21      C        0.59030    0.75049    0.73931    1.000
    C22      C        0.61120    0.11561    0.65739    1.000
    C23      C        0.69270    0.96522    0.62238    1.000
    C24      C        0.57080    0.08065    0.73695    1.000
    C25      C        0.59390    0.98821    0.75919    1.000
    C26      C        0.67240    0.05892    0.60148    1.000
    C27      C        0.60610    0.24367    0.54513    1.000
    C28      C        0.71640    0.67500    0.69620    1.000
    C29      C        0.25000    0.34340    0.65660    1.000
    C30      C        0.25000    0.41770    0.58230    1.000
    N1       N        0.95170    0.34544    0.62936    1.000
    N2       N        0.88330    0.27029    0.34331    1.000
    N3       N        0.83370    0.28635    0.17265    1.000
    N4       N        0.90970    0.36559    0.78801    1.000
    N5       N        0.54830    0.37064    0.65456    1.000
    N6       N        0.61670    0.65669    0.72971    1.000
    N7       N        0.66630    0.82735    0.71365    1.000
    N8       N        0.59030    0.21199    0.63441    1.000
    O1       O        0.90980    0.91628    0.25004    1.000
    O2       O        0.73570    0.91176    0.34380    1.000
    O3       O        0.84870    0.10217    0.46737    1.000
    O4       O        0.01630    0.10992    0.36962    1.000
    O5       O        0.59020    0.74996    0.08372    1.000
    O6       O        0.76430    0.65620    0.08824    1.000
    O7       O        0.65130    0.53263    0.89783    1.000
    O8       O        0.48370    0.63038    0.89008    1.000
    O9       O        0.14750    0.38958    0.50104    1.000
    O10      O        0.14900    0.26085    0.63131    1.000
    O11      O        0.35250    0.49896    0.61042    1.000
    O12      O        0.35100    0.36869    0.73915    1.000
    Zn4      Zn       0.00952    0.74519    0.51123    1.000
    Zn5      Zn       0.49048    0.48877    0.25481    1.000
    Zn6      Zn       0.25000    0.21973    0.78027    1.000
    H21      H        0.31600    0.66460    0.81740    1.000
    H22      H        0.19900    0.55010    0.08590    1.000
    H23      H        0.02500    0.75960    0.75840    1.000
    H24      H        0.08100    0.51490    0.38710    1.000
    H25      H        0.03800    0.76030    0.29370    1.000
    H26      H        0.23000    0.58220    0.92580    1.000
    H27      H        0.25100    0.68100    0.61900    1.000
    H28      H        0.13200    0.49560    0.20640    1.000
    H29      H        0.07000    0.81200    0.96400    1.000
    H30      H        0.02600    0.77400    0.12000    1.000
    H31      H        0.18400    0.18260    0.33540    1.000
    H32      H        0.30100    0.91410    0.44990    1.000
    H33      H        0.47500    0.24160    0.24040    1.000
    H34      H        0.41900    0.61290    0.48510    1.000
    H35      H        0.46200    0.70630    0.23970    1.000
    H36      H        0.27000    0.07420    0.41780    1.000
    H37      H        0.24900    0.38100    0.31900    1.000
    H38      H        0.36800    0.79360    0.50440    1.000
    H39      H        0.43000    0.03600    0.18800    1.000
    H40      H        0.47400    0.88000    0.22600    1.000
    C31      C        0.08110    0.55892    0.34108    1.000
    C32      C        0.05510    0.69705    0.29115    1.000
    C33      C        0.24840    0.68630    0.77850    1.000
    C34      C        0.17190    0.99151    0.61409    1.000
    C35      C        0.15320    0.70015    0.93025    1.000
    C36      C        0.07220    0.98783    0.66937    1.000
    C37      C        0.09030    0.73931    0.75049    1.000
    C38      C        0.11120    0.65739    0.11561    1.000
    C39      C        0.19270    0.62238    0.96522    1.000
    C40      C        0.07080    0.73695    0.08065    1.000
    C41      C        0.09390    0.75919    0.98821    1.000
    C42      C        0.17240    0.60148    0.05892    1.000
    C43      C        0.10610    0.54513    0.24367    1.000
    C44      C        0.21640    0.69620    0.67500    1.000
    C45      C        0.41890    0.65892    0.44108    1.000
    C46      C        0.44490    0.70885    0.30295    1.000
    C47      C        0.25160    0.22150    0.31370    1.000
    C48      C        0.32810    0.38591    0.00849    1.000
    C49      C        0.34680    0.06975    0.29985    1.000
    C50      C        0.42780    0.33063    0.01217    1.000
    C51      C        0.40970    0.24951    0.26069    1.000
    C52      C        0.38880    0.88439    0.34261    1.000
    C53      C        0.30730    0.03478    0.37762    1.000
    C54      C        0.42920    0.91935    0.26305    1.000
    C55      C        0.40610    0.01179    0.24081    1.000
    C56      C        0.32760    0.94108    0.39852    1.000
    C57      C        0.39390    0.75633    0.45487    1.000
    C58      C        0.28360    0.32500    0.30380    1.000
    C59      C        0.75000    0.65660    0.34340    1.000
    C60      C        0.75000    0.58230    0.41770    1.000
    N9       N        0.04830    0.65456    0.37064    1.000
    N10      N        0.11670    0.72971    0.65669    1.000
    N11      N        0.16630    0.71365    0.82735    1.000
    N12      N        0.09030    0.63441    0.21199    1.000
    N13      N        0.45170    0.62936    0.34544    1.000
    N14      N        0.38330    0.34331    0.27029    1.000
    N15      N        0.33370    0.17265    0.28635    1.000
    N16      N        0.40970    0.78801    0.36559    1.000
    O13      O        0.85250    0.61042    0.49896    1.000
    O14      O        0.85100    0.73915    0.36869    1.000
    O15      O        0.64750    0.50104    0.38958    1.000
    O16      O        0.64900    0.63131    0.26085    1.000
    O17      O        0.09020    0.08372    0.74996    1.000
    O18      O        0.26430    0.08824    0.65620    1.000
    O19      O        0.15130    0.89783    0.53263    1.000
    O20      O        0.98370    0.89008    0.63038    1.000
    O21      O        0.40980    0.25004    0.91628    1.000
    O22      O        0.23570    0.34380    0.91176    1.000
    O23      O        0.34870    0.46737    0.10217    1.000
    O24      O        0.51630    0.36962    0.10992    1.000
