# CIF file generated by openbabel 3.1.0, see https://openbabel.org
data_I
_chemical_name_common 'cg800424t_si_002_clean'
_cell_length_a 13.3295
_cell_length_b 16.216
_cell_length_c 16.216
_cell_angle_alpha 67.208
_cell_angle_beta 74.0976
_cell_angle_gamma 105.902
_space_group_name_H-M_alt 'P 1'
_space_group_name_Hall 'P 1'
loop_
    _symmetry_equiv_pos_as_xyz
    x,y,z
loop_
    _atom_site_label
    _atom_site_type_symbol
    _atom_site_fract_x
    _atom_site_fract_y
    _atom_site_fract_z
    _atom_site_occupancy
    Cd1      Cd       0.00000    0.50000    0.50000    1.000
    Cd2      Cd       0.50000    0.50000    0.00000    1.000
    Cd3      Cd       0.50000    0.00000    0.50000    1.000
    H1       H        0.63390    0.45460    0.29110    1.000
    H2       H        0.12890    0.00000    0.37340    1.000
    H3       H        0.43900    0.83340    0.72050    1.000
    H4       H        0.64680    0.47560    0.13960    1.000
    H5       H        0.63390    0.70890    0.54540    1.000
    H6       H        0.49770    0.62660    0.37340    1.000
    H7       H        0.43900    0.27950    0.16660    1.000
    H8       H        0.83750    0.45820    0.85740    1.000
    H9       H        0.87110    0.00000    0.62660    1.000
    H10      H        0.82070    0.74570    0.54540    1.000
    H11      H        0.62070    0.45820    0.68440    1.000
    H12      H        0.62070    0.31560    0.54180    1.000
    H13      H        0.12890    0.62660    0.00000    1.000
    H14      H        0.35320    0.52440    0.86040    1.000
    H15      H        0.37930    0.68440    0.45820    1.000
    H16      H        0.16250    0.54180    0.14260    1.000
    H17      H        0.21360    0.38480    0.13960    1.000
    H18      H        0.56100    0.72050    0.83340    1.000
    H19      H        0.82070    0.45460    0.25430    1.000
    H20      H        0.30510    0.14260    0.31560    1.000
    H21      H        0.84050    0.44610    0.72050    1.000
    H22      H        0.60560    0.16660    0.55390    1.000
    H23      H        0.21360    0.86040    0.61520    1.000
    H24      H        0.83750    0.14260    0.54180    1.000
    H25      H        0.17120    0.52440    0.61520    1.000
    H26      H        0.92500    0.74570    0.70890    1.000
    H27      H        0.78640    0.13960    0.38480    1.000
    H28      H        0.07500    0.70890    0.74570    1.000
    H29      H        0.92500    0.29110    0.25430    1.000
    H30      H        0.07500    0.25430    0.29110    1.000
    H31      H        0.17930    0.54540    0.74570    1.000
    H32      H        0.50230    0.37340    0.62660    1.000
    H33      H        0.36610    0.29110    0.45460    1.000
    H34      H        0.36610    0.54540    0.70890    1.000
    H35      H        0.30510    0.68440    0.85740    1.000
    H36      H        0.39440    0.83340    0.44610    1.000
    H37      H        0.56100    0.16660    0.27950    1.000
    H38      H        0.69490    0.31560    0.14260    1.000
    H39      H        0.35320    0.13960    0.47560    1.000
    H40      H        0.64680    0.86040    0.52440    1.000
    H41      H        0.17930    0.25430    0.45460    1.000
    H42      H        0.84050    0.27950    0.55390    1.000
    H43      H        0.60560    0.44610    0.83340    1.000
    H44      H        0.15950    0.72050    0.44610    1.000
    H45      H        0.17120    0.38480    0.47560    1.000
    H46      H        0.87110    0.37340    0.00000    1.000
    H47      H        0.69490    0.85740    0.68440    1.000
    H48      H        0.39440    0.55390    0.16660    1.000
    H49      H        0.78640    0.61520    0.86040    1.000
    H50      H        0.82880    0.61520    0.52440    1.000
    H51      H        0.15950    0.55390    0.27950    1.000
    H52      H        0.82880    0.47560    0.38480    1.000
    H53      H        0.37930    0.54180    0.31560    1.000
    H54      H        0.16250    0.85740    0.45820    1.000
    C1       C        0.10351    0.33631    0.48768    1.000
    C2       C        0.44395    0.80833    0.46558    1.000
    C3       C        0.50084    0.42461    0.57539    1.000
    C4       C        0.49363    0.32133    0.49704    1.000
    C5       C        0.85174    0.26681    0.25689    1.000
    C6       C        0.90953    0.46558    0.72609    1.000
    C7       C        0.55605    0.46558    0.80833    1.000
    C8       C        0.82770    0.81837    0.67867    1.000
    C9       C        0.40881    0.17601    0.48768    1.000
    C10      C        0.00933    0.50296    0.81837    1.000
    C11      C        0.85174    0.74311    0.73319    1.000
    C12      C        0.99320    0.49333    0.09053    1.000
    C13      C        0.28430    0.71807    0.80887    1.000
    C14      C        0.99067    0.81837    0.50296    1.000
    C15      C        0.50637    0.49704    0.32133    1.000
    C16      C        0.89137    0.74311    0.52370    1.000
    C17      C        0.59119    0.82399    0.51232    1.000
    C18      C        0.09317    0.52694    0.19113    1.000
    C19      C        0.92377    0.42461    0.00000    1.000
    C20      C        0.49363    0.50296    0.67867    1.000
    C21      C        0.56623    0.47306    0.71807    1.000
    C22      C        0.07623    0.00000    0.42461    1.000
    C23      C        0.49916    0.57539    0.42461    1.000
    C24      C        0.50013    0.58386    0.50667    1.000
    C25      C        0.50013    0.49333    0.41614    1.000
    C26      C        0.82770    0.32133    0.18163    1.000
    C27      C        0.91627    0.90947    0.58386    1.000
    C28      C        0.14826    0.73319    0.74311    1.000
    C29      C        0.07623    0.57539    0.00000    1.000
    C30      C        0.99320    0.90947    0.50667    1.000
    C31      C        0.71570    0.28193    0.19113    1.000
    C32      C        0.99067    0.49704    0.18163    1.000
    C33      C        0.43377    0.52694    0.28193    1.000
    C34      C        0.41507    0.52370    0.73319    1.000
    C35      C        0.41507    0.26681    0.47630    1.000
    C36      C        0.17230    0.67867    0.81837    1.000
    C37      C        0.58493    0.73319    0.52370    1.000
    C38      C        0.09047    0.72609    0.46558    1.000
    C39      C        0.55605    0.19167    0.53442    1.000
    C40      C        0.10863    0.25689    0.47630    1.000
    C41      C        0.08373    0.58386    0.90947    1.000
    C42      C        0.58493    0.47630    0.26681    1.000
    C43      C        0.10351    0.51232    0.66369    1.000
    C44      C        0.23280    0.82399    0.66369    1.000
    C45      C        0.76720    0.17601    0.33631    1.000
    C46      C        0.08373    0.09053    0.41614    1.000
    C47      C        0.89137    0.47630    0.25689    1.000
    C48      C        0.36438    0.80833    0.72609    1.000
    C49      C        0.23280    0.33631    0.17601    1.000
    C50      C        0.00933    0.18163    0.49704    1.000
    C51      C        0.89649    0.48768    0.33631    1.000
    C52      C        0.89649    0.66369    0.51232    1.000
    C53      C        0.49987    0.50667    0.58386    1.000
    C54      C        0.90953    0.27391    0.53442    1.000
    C55      C        0.10863    0.52370    0.74311    1.000
    C56      C        0.43377    0.71807    0.47306    1.000
    C57      C        0.44395    0.53442    0.19167    1.000
    C58      C        0.00680    0.09053    0.49333    1.000
    C59      C        0.76720    0.66369    0.82399    1.000
    C60      C        0.91627    0.41614    0.09053    1.000
    C61      C        0.56623    0.28193    0.52694    1.000
    C62      C        0.36438    0.27391    0.19167    1.000
    C63      C        0.90683    0.47306    0.80887    1.000
    C64      C        0.50637    0.67867    0.50296    1.000
    C65      C        0.49987    0.41614    0.49333    1.000
    C66      C        0.90683    0.19113    0.52694    1.000
    C67      C        0.63562    0.72609    0.80833    1.000
    C68      C        0.00680    0.50667    0.90947    1.000
    C69      C        0.92377    0.00000    0.57539    1.000
    C70      C        0.28430    0.19113    0.28193    1.000
    C71      C        0.17230    0.18163    0.32133    1.000
    C72      C        0.71570    0.80887    0.71807    1.000
    C73      C        0.09047    0.53442    0.27391    1.000
    C74      C        0.59119    0.48768    0.17601    1.000
    C75      C        0.63562    0.19167    0.27391    1.000
    C76      C        0.09317    0.80887    0.47306    1.000
    C77      C        0.40881    0.51232    0.82399    1.000
    C78      C        0.14826    0.25689    0.26681    1.000
    S1       S        0.77930    0.41580    0.58420    1.000
    S2       S        0.36350    0.58420    0.00000    1.000
    S3       S        0.36350    0.00000    0.41580    1.000
    N1       N        0.65931    0.13868    0.34605    1.000
    N2       N        0.00536    0.48473    0.65395    1.000
    N3       N        0.65931    0.65395    0.86132    1.000
    N4       N        0.47937    0.48473    0.86132    1.000
    N5       N        0.00536    0.34605    0.51527    1.000
    N6       N        0.52063    0.51527    0.13868    1.000
    N7       N        0.99464    0.51527    0.34605    1.000
    N8       N        0.34069    0.34605    0.13868    1.000
    N9       N        0.99464    0.65395    0.48473    1.000
    N10      N        0.34069    0.86132    0.65395    1.000
    N11      N        0.47937    0.13868    0.51527    1.000
    N12      N        0.52063    0.86132    0.48473    1.000
