# CIF file generated by openbabel 3.1.0, see https://openbabel.org
data_I
_chemical_name_common 'image0'
_cell_length_a 14.853
_cell_length_b 17.01
_cell_length_c 14.538
_cell_angle_alpha 90
_cell_angle_beta 120.72
_cell_angle_gamma 90
_space_group_name_H-M_alt 'P 1'
_space_group_name_Hall 'P 1'
loop_
    _symmetry_equiv_pos_as_xyz
    x,y,z
loop_
    _atom_site_label
    _atom_site_type_symbol
    _atom_site_fract_x
    _atom_site_fract_y
    _atom_site_fract_z
    _atom_site_occupancy
    Br1      Br       0.42502    0.89335    0.31346    1.000
    Br2      Br       0.33001    0.34782    0.11135    1.000
    Co1      Co       0.09221    0.12065    0.20785    1.000
    N1       N        0.17630    0.04450    0.16380    1.000
    N2       N        0.21570    0.20580    0.25600    1.000
    O1       O        0.17030    0.92230    0.86480    1.000
    O2       O        0.02410    0.96350    0.86100    1.000
    O3       O        0.51070    0.32660    0.55120    1.000
    O4       O        0.40830    0.24000    0.57260    1.000
    H1       H        0.04660    0.22350    0.31110    1.000
    C1       C        0.31150    0.94940    0.20560    1.000
    C2       C        0.26290    0.00540    0.23590    1.000
    H2       H        0.29180    0.01630    0.30980    1.000
    C3       C        0.13460    0.02600    0.05920    1.000
    H3       H        0.07160    0.05110    0.00800    1.000
    C4       C        0.17990    0.97190    0.02360    1.000
    C5       C        0.27160    0.93210    0.09830    1.000
    H4       H        0.30470    0.89510    0.07620    1.000
    C6       C        0.11970    0.95140    0.90440    1.000
    C7       C        0.31440    0.29460    0.21700    1.000
    C8       C        0.23370    0.24250    0.18500    1.000
    H5       H        0.18940    0.23190    0.11090    1.000
    C9       C        0.28060    0.21870    0.35960    1.000
    H6       H        0.26830    0.19280    0.41000    1.000
    C10      C        0.36630    0.26910    0.39660    1.000
    C11      C        0.38430    0.30820    0.32360    1.000
    H7       H        0.44220    0.34270    0.34630    1.000
    C12      C        0.43590    0.27890    0.51750    1.000
    Br3      Br       0.92502    0.39335    0.31346    1.000
    Br4      Br       0.83001    0.84782    0.11135    1.000
    Co2      Co       0.59221    0.62065    0.20785    1.000
    N3       N        0.67630    0.54450    0.16380    1.000
    N4       N        0.71570    0.70580    0.25600    1.000
    O5       O        0.67030    0.42230    0.86480    1.000
    O6       O        0.52410    0.46350    0.86100    1.000
    O7       O        0.01070    0.82660    0.55120    1.000
    O8       O        0.90830    0.74000    0.57260    1.000
    H8       H        0.54660    0.72350    0.31110    1.000
    C13      C        0.81150    0.44940    0.20560    1.000
    C14      C        0.76290    0.50540    0.23590    1.000
    H9       H        0.79180    0.51630    0.30980    1.000
    C15      C        0.63460    0.52600    0.05920    1.000
    H10      H        0.57160    0.55110    0.00800    1.000
    C16      C        0.67990    0.47190    0.02360    1.000
    C17      C        0.77160    0.43210    0.09830    1.000
    H11      H        0.80470    0.39510    0.07620    1.000
    C18      C        0.61970    0.45140    0.90440    1.000
    C19      C        0.81440    0.79460    0.21700    1.000
    C20      C        0.73370    0.74250    0.18500    1.000
    H12      H        0.68940    0.73190    0.11090    1.000
    C21      C        0.78060    0.71870    0.35960    1.000
    H13      H        0.76830    0.69280    0.41000    1.000
    C22      C        0.86630    0.76910    0.39660    1.000
    C23      C        0.88430    0.80820    0.32360    1.000
    H14      H        0.94220    0.84270    0.34630    1.000
    C24      C        0.93590    0.77890    0.51750    1.000
    Br5      Br       0.57498    0.89335    0.18654    1.000
    Br6      Br       0.66999    0.34782    0.38865    1.000
    Co3      Co       0.90779    0.12065    0.29215    1.000
    N5       N        0.82370    0.04450    0.33620    1.000
    N6       N        0.78430    0.20580    0.24400    1.000
    O9       O        0.82970    0.92230    0.63520    1.000
    O10      O        0.97590    0.96350    0.63900    1.000
    O11      O        0.48930    0.32660    0.94880    1.000
    O12      O        0.59170    0.24000    0.92740    1.000
    H15      H        0.95340    0.22350    0.18890    1.000
    C25      C        0.68850    0.94940    0.29440    1.000
    C26      C        0.73710    0.00540    0.26410    1.000
    H16      H        0.70820    0.01630    0.19020    1.000
    C27      C        0.86540    0.02600    0.44080    1.000
    H17      H        0.92840    0.05110    0.49200    1.000
    C28      C        0.82010    0.97190    0.47640    1.000
    C29      C        0.72840    0.93210    0.40170    1.000
    H18      H        0.69530    0.89510    0.42380    1.000
    C30      C        0.88030    0.95140    0.59560    1.000
    C31      C        0.68560    0.29460    0.28300    1.000
    C32      C        0.76630    0.24250    0.31500    1.000
    H19      H        0.81060    0.23190    0.38910    1.000
    C33      C        0.71940    0.21870    0.14040    1.000
    H20      H        0.73170    0.19280    0.09000    1.000
    C34      C        0.63370    0.26910    0.10340    1.000
    C35      C        0.61570    0.30820    0.17640    1.000
    H21      H        0.55780    0.34270    0.15370    1.000
    C36      C        0.56410    0.27890    0.98250    1.000
    Br7      Br       0.07498    0.39335    0.18654    1.000
    Br8      Br       0.16999    0.84782    0.38865    1.000
    Co4      Co       0.40779    0.62065    0.29215    1.000
    N7       N        0.32370    0.54450    0.33620    1.000
    N8       N        0.28430    0.70580    0.24400    1.000
    O13      O        0.32970    0.42230    0.63520    1.000
    O14      O        0.47590    0.46350    0.63900    1.000
    O15      O        0.98930    0.82660    0.94880    1.000
    O16      O        0.09170    0.74000    0.92740    1.000
    H22      H        0.45340    0.72350    0.18890    1.000
    C37      C        0.18850    0.44940    0.29440    1.000
    C38      C        0.23710    0.50540    0.26410    1.000
    H23      H        0.20820    0.51630    0.19020    1.000
    C39      C        0.36540    0.52600    0.44080    1.000
    H24      H        0.42840    0.55110    0.49200    1.000
    C40      C        0.32010    0.47190    0.47640    1.000
    C41      C        0.22840    0.43210    0.40170    1.000
    H25      H        0.19530    0.39510    0.42380    1.000
    C42      C        0.38030    0.45140    0.59560    1.000
    C43      C        0.18560    0.79460    0.28300    1.000
    C44      C        0.26630    0.74250    0.31500    1.000
    H26      H        0.31060    0.73190    0.38910    1.000
    C45      C        0.21940    0.71870    0.14040    1.000
    H27      H        0.23170    0.69280    0.09000    1.000
    C46      C        0.13370    0.76910    0.10340    1.000
    C47      C        0.11570    0.80820    0.17640    1.000
    H28      H        0.05780    0.84270    0.15370    1.000
    C48      C        0.06410    0.77890    0.98250    1.000
    Br9      Br       0.57498    0.10665    0.68654    1.000
    Br10     Br       0.66999    0.65218    0.88865    1.000
    Co5      Co       0.90779    0.87935    0.79215    1.000
    N9       N        0.82370    0.95550    0.83620    1.000
    N10      N        0.78430    0.79420    0.74400    1.000
    O17      O        0.82970    0.07770    0.13520    1.000
    O18      O        0.97590    0.03650    0.13900    1.000
    O19      O        0.48930    0.67340    0.44880    1.000
    O20      O        0.59170    0.76000    0.42740    1.000
    H29      H        0.95340    0.77650    0.68890    1.000
    C49      C        0.68850    0.05060    0.79440    1.000
    C50      C        0.73710    0.99460    0.76410    1.000
    H30      H        0.70820    0.98370    0.69020    1.000
    C51      C        0.86540    0.97400    0.94080    1.000
    H31      H        0.92840    0.94890    0.99200    1.000
    C52      C        0.82010    0.02810    0.97640    1.000
    C53      C        0.72840    0.06790    0.90170    1.000
    H32      H        0.69530    0.10490    0.92380    1.000
    C54      C        0.88030    0.04860    0.09560    1.000
    C55      C        0.68560    0.70540    0.78300    1.000
    C56      C        0.76630    0.75750    0.81500    1.000
    H33      H        0.81060    0.76810    0.88910    1.000
    C57      C        0.71940    0.78130    0.64040    1.000
    H34      H        0.73170    0.80720    0.59000    1.000
    C58      C        0.63370    0.73090    0.60340    1.000
    C59      C        0.61570    0.69180    0.67640    1.000
    H35      H        0.55780    0.65730    0.65370    1.000
    C60      C        0.56410    0.72110    0.48250    1.000
    Br11     Br       0.07498    0.60665    0.68654    1.000
    Br12     Br       0.16999    0.15218    0.88865    1.000
    Co6      Co       0.40779    0.37935    0.79215    1.000
    N11      N        0.32370    0.45550    0.83620    1.000
    N12      N        0.28430    0.29420    0.74400    1.000
    O21      O        0.32970    0.57770    0.13520    1.000
    O22      O        0.47590    0.53650    0.13900    1.000
    O23      O        0.98930    0.17340    0.44880    1.000
    O24      O        0.09170    0.26000    0.42740    1.000
    H36      H        0.45340    0.27650    0.68890    1.000
    C61      C        0.18850    0.55060    0.79440    1.000
    C62      C        0.23710    0.49460    0.76410    1.000
    H37      H        0.20820    0.48370    0.69020    1.000
    C63      C        0.36540    0.47400    0.94080    1.000
    H38      H        0.42840    0.44890    0.99200    1.000
    C64      C        0.32010    0.52810    0.97640    1.000
    C65      C        0.22840    0.56790    0.90170    1.000
    H39      H        0.19530    0.60490    0.92380    1.000
    C66      C        0.38030    0.54860    0.09560    1.000
    C67      C        0.18560    0.20540    0.78300    1.000
    C68      C        0.26630    0.25750    0.81500    1.000
    H40      H        0.31060    0.26810    0.88910    1.000
    C69      C        0.21940    0.28130    0.64040    1.000
    H41      H        0.23170    0.30720    0.59000    1.000
    C70      C        0.13370    0.23090    0.60340    1.000
    C71      C        0.11570    0.19180    0.67640    1.000
    H42      H        0.05780    0.15730    0.65370    1.000
    C72      C        0.06410    0.22110    0.48250    1.000
    Br13     Br       0.42502    0.10665    0.81346    1.000
    Br14     Br       0.33001    0.65218    0.61135    1.000
    Co7      Co       0.09221    0.87935    0.70785    1.000
    N13      N        0.17630    0.95550    0.66380    1.000
    N14      N        0.21570    0.79420    0.75600    1.000
    O25      O        0.17030    0.07770    0.36480    1.000
    O26      O        0.02410    0.03650    0.36100    1.000
    O27      O        0.51070    0.67340    0.05120    1.000
    O28      O        0.40830    0.76000    0.07260    1.000
    H43      H        0.04660    0.77650    0.81110    1.000
    C73      C        0.31150    0.05060    0.70560    1.000
    C74      C        0.26290    0.99460    0.73590    1.000
    H44      H        0.29180    0.98370    0.80980    1.000
    C75      C        0.13460    0.97400    0.55920    1.000
    H45      H        0.07160    0.94890    0.50800    1.000
    C76      C        0.17990    0.02810    0.52360    1.000
    C77      C        0.27160    0.06790    0.59830    1.000
    H46      H        0.30470    0.10490    0.57620    1.000
    C78      C        0.11970    0.04860    0.40440    1.000
    C79      C        0.31440    0.70540    0.71700    1.000
    C80      C        0.23370    0.75750    0.68500    1.000
    H47      H        0.18940    0.76810    0.61090    1.000
    C81      C        0.28060    0.78130    0.85960    1.000
    H48      H        0.26830    0.80720    0.91000    1.000
    C82      C        0.36630    0.73090    0.89660    1.000
    C83      C        0.38430    0.69180    0.82360    1.000
    H49      H        0.44220    0.65730    0.84630    1.000
    C84      C        0.43590    0.72110    0.01750    1.000
    Br15     Br       0.92502    0.60665    0.81346    1.000
    Br16     Br       0.83001    0.15218    0.61135    1.000
    Co8      Co       0.59221    0.37935    0.70785    1.000
    N15      N        0.67630    0.45550    0.66380    1.000
    N16      N        0.71570    0.29420    0.75600    1.000
    O29      O        0.67030    0.57770    0.36480    1.000
    O30      O        0.52410    0.53650    0.36100    1.000
    O31      O        0.01070    0.17340    0.05120    1.000
    O32      O        0.90830    0.26000    0.07260    1.000
    H50      H        0.54660    0.27650    0.81110    1.000
    C85      C        0.81150    0.55060    0.70560    1.000
    C86      C        0.76290    0.49460    0.73590    1.000
    H51      H        0.79180    0.48370    0.80980    1.000
    C87      C        0.63460    0.47400    0.55920    1.000
    H52      H        0.57160    0.44890    0.50800    1.000
    C88      C        0.67990    0.52810    0.52360    1.000
    C89      C        0.77160    0.56790    0.59830    1.000
    H53      H        0.80470    0.60490    0.57620    1.000
    C90      C        0.61970    0.54860    0.40440    1.000
    C91      C        0.81440    0.20540    0.71700    1.000
    C92      C        0.73370    0.25750    0.68500    1.000
    H54      H        0.68940    0.26810    0.61090    1.000
    C93      C        0.78060    0.28130    0.85960    1.000
    H55      H        0.76830    0.30720    0.91000    1.000
    C94      C        0.86630    0.23090    0.89660    1.000
    C95      C        0.88430    0.19180    0.82360    1.000
    H56      H        0.94220    0.15730    0.84630    1.000
    C96      C        0.93590    0.22110    0.01750    1.000
    O33      O        0.00000    0.18920    0.25000    1.000
    O34      O        0.50000    0.68920    0.25000    1.000
    O35      O        0.00000    0.81080    0.75000    1.000
    O36      O        0.50000    0.31080    0.75000    1.000
