# CIF file generated by openbabel 3.1.0, see https://openbabel.org
data_I
_chemical_name_common 'image0'
_cell_length_a 20.124
_cell_length_b 7.0312
_cell_length_c 17.2274
_cell_angle_alpha 90
_cell_angle_beta 90
_cell_angle_gamma 90
_space_group_name_H-M_alt 'P 1'
_space_group_name_Hall 'P 1'
loop_
    _symmetry_equiv_pos_as_xyz
    x,y,z
loop_
    _atom_site_label
    _atom_site_type_symbol
    _atom_site_fract_x
    _atom_site_fract_y
    _atom_site_fract_z
    _atom_site_occupancy
    Cu1      Cu       0.50856    0.84551    0.59478    1.000
    O1       O        0.42778    0.70450    0.55876    1.000
    O2       O        0.50707    0.77990    0.48281    1.000
    O3       O        0.48812    0.63010    0.20139    1.000
    O4       O        0.40764    0.44270    0.16102    1.000
    N1       N        0.10176    0.41290    0.39683    1.000
    C1       C        0.45157    0.70690    0.49152    1.000
    C2       C        0.43531    0.53550    0.21189    1.000
    C3       C        0.41301    0.62700    0.42602    1.000
    C4       C        0.44345    0.61130    0.35367    1.000
    H1       H        0.48790    0.64400    0.34700    1.000
    C5       C        0.40589    0.54570    0.29220    1.000
    C6       C        0.34023    0.50240    0.30228    1.000
    H2       H        0.31590    0.45770    0.26020    1.000
    C7       C        0.30879    0.52310    0.37373    1.000
    C8       C        0.34796    0.58490    0.43535    1.000
    H3       H        0.32890    0.59750    0.48420    1.000
    C9       C        0.23753    0.48900    0.38229    1.000
    C10      C        0.19454    0.49540    0.31957    1.000
    H4       H        0.21130    0.52450    0.27070    1.000
    C11      C        0.12903    0.46040    0.32773    1.000
    H5       H        0.10170    0.46920    0.28440    1.000
    C12      C        0.14247    0.40760    0.45853    1.000
    H6       H        0.12480    0.37710    0.50680    1.000
    C13      C        0.20864    0.44510    0.45313    1.000
    H7       H        0.23480    0.44130    0.49760    1.000
    Cu2      Cu       0.00856    0.15449    0.90521    1.000
    O5       O        0.92778    0.29550    0.94124    1.000
    O6       O        0.00707    0.22010    0.01719    1.000
    O7       O        0.98812    0.36990    0.29861    1.000
    O8       O        0.90764    0.55730    0.33898    1.000
    N2       N        0.60176    0.58710    0.10317    1.000
    C14      C        0.95157    0.29310    0.00848    1.000
    C15      C        0.93531    0.46450    0.28811    1.000
    C16      C        0.91301    0.37300    0.07398    1.000
    C17      C        0.94345    0.38870    0.14633    1.000
    H8       H        0.98790    0.35600    0.15300    1.000
    C18      C        0.90589    0.45430    0.20780    1.000
    C19      C        0.84023    0.49760    0.19772    1.000
    H9       H        0.81590    0.54230    0.23980    1.000
    C20      C        0.80879    0.47690    0.12627    1.000
    C21      C        0.84796    0.41510    0.06465    1.000
    H10      H        0.82890    0.40250    0.01580    1.000
    C22      C        0.73753    0.51100    0.11771    1.000
    C23      C        0.69454    0.50460    0.18043    1.000
    H11      H        0.71130    0.47550    0.22930    1.000
    C24      C        0.62903    0.53960    0.17227    1.000
    H12      H        0.60170    0.53080    0.21560    1.000
    C25      C        0.64247    0.59240    0.04147    1.000
    H13      H        0.62480    0.62290    0.99320    1.000
    C26      C        0.70864    0.55490    0.04687    1.000
    H14      H        0.73480    0.55870    0.00240    1.000
    Cu3      Cu       0.00856    0.34551    0.40522    1.000
    O9       O        0.92778    0.20450    0.44124    1.000
    O10      O        0.00707    0.27990    0.51719    1.000
    O11      O        0.98812    0.13010    0.79861    1.000
    O12      O        0.90764    0.94270    0.83898    1.000
    N3       N        0.60176    0.91290    0.60317    1.000
    C27      C        0.95157    0.20690    0.50848    1.000
    C28      C        0.93531    0.03550    0.78811    1.000
    C29      C        0.91301    0.12700    0.57398    1.000
    C30      C        0.94345    0.11130    0.64633    1.000
    H15      H        0.98790    0.14400    0.65300    1.000
    C31      C        0.90589    0.04570    0.70780    1.000
    C32      C        0.84023    0.00240    0.69772    1.000
    H16      H        0.81590    0.95770    0.73980    1.000
    C33      C        0.80879    0.02310    0.62627    1.000
    C34      C        0.84796    0.08490    0.56465    1.000
    H17      H        0.82890    0.09750    0.51580    1.000
    C35      C        0.73753    0.98900    0.61771    1.000
    C36      C        0.69454    0.99540    0.68043    1.000
    H18      H        0.71130    0.02450    0.72930    1.000
    C37      C        0.62903    0.96040    0.67227    1.000
    H19      H        0.60170    0.96920    0.71560    1.000
    C38      C        0.64247    0.90760    0.54147    1.000
    H20      H        0.62480    0.87710    0.49320    1.000
    C39      C        0.70864    0.94510    0.54687    1.000
    H21      H        0.73480    0.94130    0.50240    1.000
    Cu4      Cu       0.50856    0.65449    0.09478    1.000
    O13      O        0.42778    0.79550    0.05876    1.000
    O14      O        0.50707    0.72010    0.98281    1.000
    O15      O        0.48812    0.86990    0.70139    1.000
    O16      O        0.40764    0.05730    0.66102    1.000
    N4       N        0.10176    0.08710    0.89683    1.000
    C40      C        0.45157    0.79310    0.99152    1.000
    C41      C        0.43531    0.96450    0.71189    1.000
    C42      C        0.41301    0.87300    0.92602    1.000
    C43      C        0.44345    0.88870    0.85367    1.000
    H22      H        0.48790    0.85600    0.84700    1.000
    C44      C        0.40589    0.95430    0.79220    1.000
    C45      C        0.34023    0.99760    0.80228    1.000
    H23      H        0.31590    0.04230    0.76020    1.000
    C46      C        0.30879    0.97690    0.87373    1.000
    C47      C        0.34796    0.91510    0.93535    1.000
    H24      H        0.32890    0.90250    0.98420    1.000
    C48      C        0.23753    0.01100    0.88229    1.000
    C49      C        0.19454    0.00460    0.81957    1.000
    H25      H        0.21130    0.97550    0.77070    1.000
    C50      C        0.12903    0.03960    0.82773    1.000
    H26      H        0.10170    0.03080    0.78440    1.000
    C51      C        0.14247    0.09240    0.95853    1.000
    H27      H        0.12480    0.12290    0.00680    1.000
    C52      C        0.20864    0.05490    0.95313    1.000
    H28      H        0.23480    0.05870    0.99760    1.000
    Cu5      Cu       0.99144    0.65449    0.59478    1.000
    O17      O        0.07222    0.79550    0.55876    1.000
    O18      O        0.99293    0.72010    0.48281    1.000
    O19      O        0.01188    0.86990    0.20139    1.000
    O20      O        0.09236    0.05730    0.16102    1.000
    N5       N        0.39824    0.08710    0.39683    1.000
    C53      C        0.04843    0.79310    0.49152    1.000
    C54      C        0.06469    0.96450    0.21189    1.000
    C55      C        0.08699    0.87300    0.42602    1.000
    C56      C        0.05655    0.88870    0.35367    1.000
    H29      H        0.01210    0.85600    0.34700    1.000
    C57      C        0.09411    0.95430    0.29220    1.000
    C58      C        0.15977    0.99760    0.30228    1.000
    H30      H        0.18410    0.04230    0.26020    1.000
    C59      C        0.19121    0.97690    0.37373    1.000
    C60      C        0.15204    0.91510    0.43535    1.000
    H31      H        0.17110    0.90250    0.48420    1.000
    C61      C        0.26247    0.01100    0.38229    1.000
    C62      C        0.30546    0.00460    0.31957    1.000
    H32      H        0.28870    0.97550    0.27070    1.000
    C63      C        0.37097    0.03960    0.32773    1.000
    H33      H        0.39830    0.03080    0.28440    1.000
    C64      C        0.35753    0.09240    0.45853    1.000
    H34      H        0.37520    0.12290    0.50680    1.000
    C65      C        0.29136    0.05490    0.45313    1.000
    H35      H        0.26520    0.05870    0.49760    1.000
    Cu6      Cu       0.49144    0.34551    0.90521    1.000
    O21      O        0.57222    0.20450    0.94124    1.000
    O22      O        0.49293    0.27990    0.01719    1.000
    O23      O        0.51188    0.13010    0.29861    1.000
    O24      O        0.59236    0.94270    0.33898    1.000
    N6       N        0.89824    0.91290    0.10317    1.000
    C66      C        0.54843    0.20690    0.00848    1.000
    C67      C        0.56469    0.03550    0.28811    1.000
    C68      C        0.58699    0.12700    0.07398    1.000
    C69      C        0.55655    0.11130    0.14633    1.000
    H36      H        0.51210    0.14400    0.15300    1.000
    C70      C        0.59411    0.04570    0.20780    1.000
    C71      C        0.65977    0.00240    0.19772    1.000
    H37      H        0.68410    0.95770    0.23980    1.000
    C72      C        0.69121    0.02310    0.12627    1.000
    C73      C        0.65204    0.08490    0.06465    1.000
    H38      H        0.67110    0.09750    0.01580    1.000
    C74      C        0.76247    0.98900    0.11771    1.000
    C75      C        0.80546    0.99540    0.18043    1.000
    H39      H        0.78870    0.02450    0.22930    1.000
    C76      C        0.87097    0.96040    0.17227    1.000
    H40      H        0.89830    0.96920    0.21560    1.000
    C77      C        0.85753    0.90760    0.04147    1.000
    H41      H        0.87520    0.87710    0.99320    1.000
    C78      C        0.79136    0.94510    0.04687    1.000
    H42      H        0.76520    0.94130    0.00240    1.000
    Cu7      Cu       0.49144    0.15449    0.40522    1.000
    O25      O        0.57222    0.29550    0.44124    1.000
    O26      O        0.49293    0.22010    0.51719    1.000
    O27      O        0.51188    0.36990    0.79861    1.000
    O28      O        0.59236    0.55730    0.83898    1.000
    N7       N        0.89824    0.58710    0.60317    1.000
    C79      C        0.54843    0.29310    0.50848    1.000
    C80      C        0.56469    0.46450    0.78811    1.000
    C81      C        0.58699    0.37300    0.57398    1.000
    C82      C        0.55655    0.38870    0.64633    1.000
    H43      H        0.51210    0.35600    0.65300    1.000
    C83      C        0.59411    0.45430    0.70780    1.000
    C84      C        0.65977    0.49760    0.69772    1.000
    H44      H        0.68410    0.54230    0.73980    1.000
    C85      C        0.69121    0.47690    0.62627    1.000
    C86      C        0.65204    0.41510    0.56465    1.000
    H45      H        0.67110    0.40250    0.51580    1.000
    C87      C        0.76247    0.51100    0.61771    1.000
    C88      C        0.80546    0.50460    0.68043    1.000
    H46      H        0.78870    0.47550    0.72930    1.000
    C89      C        0.87097    0.53960    0.67227    1.000
    H47      H        0.89830    0.53080    0.71560    1.000
    C90      C        0.85753    0.59240    0.54147    1.000
    H48      H        0.87520    0.62290    0.49320    1.000
    C91      C        0.79136    0.55490    0.54687    1.000
    H49      H        0.76520    0.55870    0.50240    1.000
    Cu8      Cu       0.99144    0.84551    0.09478    1.000
    O29      O        0.07222    0.70450    0.05876    1.000
    O30      O        0.99293    0.77990    0.98281    1.000
    O31      O        0.01188    0.63010    0.70139    1.000
    O32      O        0.09236    0.44270    0.66102    1.000
    N8       N        0.39824    0.41290    0.89683    1.000
    C92      C        0.04843    0.70690    0.99152    1.000
    C93      C        0.06469    0.53550    0.71189    1.000
    C94      C        0.08699    0.62700    0.92602    1.000
    C95      C        0.05655    0.61130    0.85367    1.000
    H50      H        0.01210    0.64400    0.84700    1.000
    C96      C        0.09411    0.54570    0.79220    1.000
    C97      C        0.15977    0.50240    0.80228    1.000
    H51      H        0.18410    0.45770    0.76020    1.000
    C98      C        0.19121    0.52310    0.87373    1.000
    C99      C        0.15204    0.58490    0.93535    1.000
    H52      H        0.17110    0.59750    0.98420    1.000
    C100     C        0.26247    0.48900    0.88229    1.000
    C101     C        0.30546    0.49540    0.81957    1.000
    H53      H        0.28870    0.52450    0.77070    1.000
    C102     C        0.37097    0.46040    0.82773    1.000
    H54      H        0.39830    0.46920    0.78440    1.000
    C103     C        0.35753    0.40760    0.95853    1.000
    H55      H        0.37520    0.37710    0.00680    1.000
    C104     C        0.29136    0.44510    0.95313    1.000
    H56      H        0.26520    0.44130    0.99760    1.000
