# CIF file generated by openbabel 3.1.0, see https://openbabel.org
data_I
_chemical_name_common 'image0'
_cell_length_a 14.9287
_cell_length_b 12.499
_cell_length_c 16.5814
_cell_angle_alpha 90
_cell_angle_beta 90
_cell_angle_gamma 90
_space_group_name_H-M_alt 'P 1'
_space_group_name_Hall 'P 1'
loop_
    _symmetry_equiv_pos_as_xyz
    x,y,z
loop_
    _atom_site_label
    _atom_site_type_symbol
    _atom_site_fract_x
    _atom_site_fract_y
    _atom_site_fract_z
    _atom_site_occupancy
    Mn1      Mn       0.60410    0.48591    0.58143    1.000
    O1       O        0.79177    0.51580    0.98821    1.000
    O2       O        0.80154    0.36592    0.05358    1.000
    O3       O        0.59201    0.35245    0.67052    1.000
    O4       O        0.50145    0.08519    0.87635    1.000
    C1       C        0.65298    0.28080    0.96329    1.000
    H1       H        0.65760    0.25350    0.01530    1.000
    O5       O        0.52765    0.11921    0.00551    1.000
    C2       C        0.76854    0.42048    0.99881    1.000
    C3       C        0.69402    0.41214    0.86382    1.000
    H2       H        0.72450    0.47440    0.84980    1.000
    C4       C        0.63408    0.40394    0.72266    1.000
    C5       C        0.70263    0.37062    0.94150    1.000
    C6       C        0.53869    0.13850    0.93182    1.000
    O6       O        0.67059    0.49162    0.70615    1.000
    C7       C        0.59214    0.27078    0.82931    1.000
    H3       H        0.55660    0.23610    0.79140    1.000
    C8       C        0.59647    0.23162    0.90767    1.000
    C9       C        0.64023    0.36115    0.80707    1.000
    Mn2      Mn       0.89590    0.51409    0.08143    1.000
    O7       O        0.70823    0.48420    0.48821    1.000
    O8       O        0.69846    0.63408    0.55358    1.000
    O9       O        0.90799    0.64755    0.17052    1.000
    O10      O        0.99855    0.91481    0.37635    1.000
    C10      C        0.84702    0.71920    0.46329    1.000
    H4       H        0.84240    0.74650    0.51530    1.000
    O11      O        0.97235    0.88079    0.50551    1.000
    C11      C        0.73146    0.57952    0.49881    1.000
    C12      C        0.80598    0.58786    0.36382    1.000
    H5       H        0.77550    0.52560    0.34980    1.000
    C13      C        0.86592    0.59606    0.22266    1.000
    C14      C        0.79737    0.62938    0.44150    1.000
    C15      C        0.96131    0.86150    0.43182    1.000
    O12      O        0.82941    0.50838    0.20615    1.000
    C16      C        0.90786    0.72922    0.32931    1.000
    H6       H        0.94340    0.76390    0.29140    1.000
    C17      C        0.90353    0.76838    0.40767    1.000
    C18      C        0.85977    0.63885    0.30707    1.000
    Mn3      Mn       0.39590    0.98591    0.91857    1.000
    O13      O        0.20823    0.01580    0.51179    1.000
    O14      O        0.19846    0.86592    0.44642    1.000
    O15      O        0.40799    0.85245    0.82948    1.000
    O16      O        0.49855    0.58519    0.62365    1.000
    C19      C        0.34702    0.78080    0.53671    1.000
    H7       H        0.34240    0.75350    0.48470    1.000
    O17      O        0.47235    0.61921    0.49449    1.000
    C20      C        0.23146    0.92048    0.50119    1.000
    C21      C        0.30598    0.91214    0.63618    1.000
    H8       H        0.27550    0.97440    0.65020    1.000
    C22      C        0.36592    0.90394    0.77734    1.000
    C23      C        0.29737    0.87062    0.55850    1.000
    C24      C        0.46131    0.63850    0.56818    1.000
    O18      O        0.32941    0.99162    0.79385    1.000
    C25      C        0.40786    0.77078    0.67069    1.000
    H9       H        0.44340    0.73610    0.70860    1.000
    C26      C        0.40353    0.73162    0.59233    1.000
    C27      C        0.35977    0.86115    0.69293    1.000
    Mn4      Mn       0.10410    0.01409    0.41857    1.000
    O19      O        0.29177    0.98420    0.01179    1.000
    O20      O        0.30154    0.13408    0.94642    1.000
    O21      O        0.09201    0.14755    0.32948    1.000
    O22      O        0.00145    0.41481    0.12365    1.000
    C28      C        0.15298    0.21920    0.03671    1.000
    H10      H        0.15760    0.24650    0.98470    1.000
    O23      O        0.02765    0.38079    0.99449    1.000
    C29      C        0.26854    0.07952    0.00119    1.000
    C30      C        0.19402    0.08786    0.13618    1.000
    H11      H        0.22450    0.02560    0.15020    1.000
    C31      C        0.13408    0.09606    0.27734    1.000
    C32      C        0.20263    0.12938    0.05850    1.000
    C33      C        0.03869    0.36150    0.06818    1.000
    O24      O        0.17059    0.00838    0.29385    1.000
    C34      C        0.09214    0.22922    0.17069    1.000
    H12      H        0.05660    0.26390    0.20860    1.000
    C35      C        0.09647    0.26838    0.09233    1.000
    C36      C        0.14023    0.13885    0.19293    1.000
    Mn5      Mn       0.39590    0.51409    0.41857    1.000
    O25      O        0.20823    0.48420    0.01179    1.000
    O26      O        0.19846    0.63408    0.94642    1.000
    O27      O        0.40799    0.64755    0.32948    1.000
    O28      O        0.49855    0.91481    0.12365    1.000
    C37      C        0.34702    0.71920    0.03671    1.000
    H13      H        0.34240    0.74650    0.98470    1.000
    O29      O        0.47235    0.88079    0.99449    1.000
    C38      C        0.23146    0.57952    0.00119    1.000
    C39      C        0.30598    0.58786    0.13618    1.000
    H14      H        0.27550    0.52560    0.15020    1.000
    C40      C        0.36592    0.59606    0.27734    1.000
    C41      C        0.29737    0.62938    0.05850    1.000
    C42      C        0.46131    0.86150    0.06818    1.000
    O30      O        0.32941    0.50838    0.29385    1.000
    C43      C        0.40786    0.72922    0.17069    1.000
    H15      H        0.44340    0.76390    0.20860    1.000
    C44      C        0.40353    0.76838    0.09233    1.000
    C45      C        0.35977    0.63885    0.19293    1.000
    Mn6      Mn       0.10410    0.48591    0.91857    1.000
    O31      O        0.29177    0.51580    0.51179    1.000
    O32      O        0.30154    0.36592    0.44642    1.000
    O33      O        0.09201    0.35245    0.82948    1.000
    O34      O        0.00145    0.08519    0.62365    1.000
    C46      C        0.15298    0.28080    0.53671    1.000
    H16      H        0.15760    0.25350    0.48470    1.000
    O35      O        0.02765    0.11921    0.49449    1.000
    C47      C        0.26854    0.42048    0.50119    1.000
    C48      C        0.19402    0.41214    0.63618    1.000
    H17      H        0.22450    0.47440    0.65020    1.000
    C49      C        0.13408    0.40394    0.77734    1.000
    C50      C        0.20263    0.37062    0.55850    1.000
    C51      C        0.03869    0.13850    0.56818    1.000
    O36      O        0.17059    0.49162    0.79385    1.000
    C52      C        0.09214    0.27078    0.67069    1.000
    H18      H        0.05660    0.23610    0.70860    1.000
    C53      C        0.09647    0.23162    0.59233    1.000
    C54      C        0.14023    0.36115    0.69293    1.000
    Mn7      Mn       0.60410    0.01409    0.08143    1.000
    O37      O        0.79177    0.98420    0.48821    1.000
    O38      O        0.80154    0.13408    0.55358    1.000
    O39      O        0.59201    0.14755    0.17052    1.000
    O40      O        0.50145    0.41481    0.37635    1.000
    C55      C        0.65298    0.21920    0.46329    1.000
    H19      H        0.65760    0.24650    0.51530    1.000
    O41      O        0.52765    0.38079    0.50551    1.000
    C56      C        0.76854    0.07952    0.49881    1.000
    C57      C        0.69402    0.08786    0.36382    1.000
    H20      H        0.72450    0.02560    0.34980    1.000
    C58      C        0.63408    0.09606    0.22266    1.000
    C59      C        0.70263    0.12938    0.44150    1.000
    C60      C        0.53869    0.36150    0.43182    1.000
    O42      O        0.67059    0.00838    0.20615    1.000
    C61      C        0.59214    0.22922    0.32931    1.000
    H21      H        0.55660    0.26390    0.29140    1.000
    C62      C        0.59647    0.26838    0.40767    1.000
    C63      C        0.64023    0.13885    0.30707    1.000
    Mn8      Mn       0.89590    0.98591    0.58143    1.000
    O43      O        0.70823    0.01580    0.98821    1.000
    O44      O        0.69846    0.86592    0.05358    1.000
    O45      O        0.90799    0.85245    0.67052    1.000
    O46      O        0.99855    0.58519    0.87635    1.000
    C64      C        0.84702    0.78080    0.96329    1.000
    H22      H        0.84240    0.75350    0.01530    1.000
    O47      O        0.97235    0.61921    0.00551    1.000
    C65      C        0.73146    0.92048    0.99881    1.000
    C66      C        0.80598    0.91214    0.86382    1.000
    H23      H        0.77550    0.97440    0.84980    1.000
    C67      C        0.86592    0.90394    0.72266    1.000
    C68      C        0.79737    0.87062    0.94150    1.000
    C69      C        0.96131    0.63850    0.93182    1.000
    O48      O        0.82941    0.99162    0.70615    1.000
    C70      C        0.90786    0.77078    0.82931    1.000
    H24      H        0.94340    0.73610    0.79140    1.000
    C71      C        0.90353    0.73162    0.90767    1.000
    C72      C        0.85977    0.86115    0.80707    1.000
