# CIF file generated by openbabel 3.1.0, see https://openbabel.org
data_I
_chemical_name_common 'image0'
_cell_length_a 17.983
_cell_length_b 9.859
_cell_length_c 19.84
_cell_angle_alpha 90
_cell_angle_beta 106.24
_cell_angle_gamma 90
_space_group_name_H-M_alt 'P 1'
_space_group_name_Hall 'P 1'
loop_
    _symmetry_equiv_pos_as_xyz
    x,y,z
loop_
    _atom_site_label
    _atom_site_type_symbol
    _atom_site_fract_x
    _atom_site_fract_y
    _atom_site_fract_z
    _atom_site_occupancy
    Ga1      Ga       0.07520    0.07190    0.50110    1.000
    Ga2      Ga       0.19060    0.57910    0.66120    1.000
    Ga3      Ga       0.19030    0.81750    0.75940    1.000
    P1       P        0.08120    0.82770    0.60490    1.000
    P2       P        0.14090    0.27200    0.63160    1.000
    P3       P        0.16560    0.01960    0.38490    1.000
    F1       F        0.00830    0.92270    0.44990    1.000
    F2       F        0.14580    0.63770    0.73970    1.000
    F3       F        0.24440    0.75350    0.69090    1.000
    O1       O        0.11310    0.68580    0.59940    1.000
    O2       O        0.11850    0.93020    0.56660    1.000
    O3       O        0.99240    0.81840    0.57170    1.000
    O4       O        0.09800    0.87070    0.68310    1.000
    O5       O        0.15240    0.05800    0.45380    1.000
    O6       O        0.12140    0.22760    0.55510    1.000
    O7       O        0.14550    0.13960    0.33280    1.000
    O8       O        0.22270    0.23310    0.67110    1.000
    O9       O        0.08310    0.19700    0.66750    1.000
    O10      O        0.12480    0.42270    0.63840    1.000
    O11      O        0.24860    0.96160    0.40070    1.000
    O12      O        0.10970    0.90070    0.35020    1.000
    O13      O        0.26350    0.49110    0.73850    1.000
    H1       H        0.28000    0.46000    0.21000    1.000
    Ga4      Ga       0.57520    0.57190    0.50110    1.000
    Ga5      Ga       0.69060    0.07910    0.66120    1.000
    Ga6      Ga       0.69030    0.31750    0.75940    1.000
    P4       P        0.58120    0.32770    0.60490    1.000
    P5       P        0.64090    0.77200    0.63160    1.000
    P6       P        0.66560    0.51960    0.38490    1.000
    F4       F        0.50830    0.42270    0.44990    1.000
    F5       F        0.64580    0.13770    0.73970    1.000
    F6       F        0.74440    0.25350    0.69090    1.000
    O14      O        0.61310    0.18580    0.59940    1.000
    O15      O        0.61850    0.43020    0.56660    1.000
    O16      O        0.49240    0.31840    0.57170    1.000
    O17      O        0.59800    0.37070    0.68310    1.000
    O18      O        0.65240    0.55800    0.45380    1.000
    O19      O        0.62140    0.72760    0.55510    1.000
    O20      O        0.64550    0.63960    0.33280    1.000
    O21      O        0.72270    0.73310    0.67110    1.000
    O22      O        0.58310    0.69700    0.66750    1.000
    O23      O        0.62480    0.92270    0.63840    1.000
    O24      O        0.74860    0.46160    0.40070    1.000
    O25      O        0.60970    0.40070    0.35020    1.000
    O26      O        0.76350    0.99110    0.73850    1.000
    H2       H        0.78000    0.96000    0.21000    1.000
    Ga7      Ga       0.92480    0.07190    0.99890    1.000
    Ga8      Ga       0.80940    0.57910    0.83880    1.000
    Ga9      Ga       0.80970    0.81750    0.74060    1.000
    P7       P        0.91880    0.82770    0.89510    1.000
    P8       P        0.85910    0.27200    0.86840    1.000
    P9       P        0.83440    0.01960    0.11510    1.000
    F7       F        0.99170    0.92270    0.05010    1.000
    F8       F        0.85420    0.63770    0.76030    1.000
    F9       F        0.75560    0.75350    0.80910    1.000
    O27      O        0.88690    0.68580    0.90060    1.000
    O28      O        0.88150    0.93020    0.93340    1.000
    O29      O        0.00760    0.81840    0.92830    1.000
    O30      O        0.90200    0.87070    0.81690    1.000
    O31      O        0.84760    0.05800    0.04620    1.000
    O32      O        0.87860    0.22760    0.94490    1.000
    O33      O        0.85450    0.13960    0.16720    1.000
    O34      O        0.77730    0.23310    0.82890    1.000
    O35      O        0.91690    0.19700    0.83250    1.000
    O36      O        0.87520    0.42270    0.86160    1.000
    O37      O        0.75140    0.96160    0.09930    1.000
    O38      O        0.89030    0.90070    0.14980    1.000
    O39      O        0.73650    0.49110    0.76150    1.000
    H3       H        0.72000    0.46000    0.29000    1.000
    Ga10     Ga       0.42480    0.57190    0.99890    1.000
    Ga11     Ga       0.30940    0.07910    0.83880    1.000
    Ga12     Ga       0.30970    0.31750    0.74060    1.000
    P10      P        0.41880    0.32770    0.89510    1.000
    P11      P        0.35910    0.77200    0.86840    1.000
    P12      P        0.33440    0.51960    0.11510    1.000
    F10      F        0.49170    0.42270    0.05010    1.000
    F11      F        0.35420    0.13770    0.76030    1.000
    F12      F        0.25560    0.25350    0.80910    1.000
    O40      O        0.38690    0.18580    0.90060    1.000
    O41      O        0.38150    0.43020    0.93340    1.000
    O42      O        0.50760    0.31840    0.92830    1.000
    O43      O        0.40200    0.37070    0.81690    1.000
    O44      O        0.34760    0.55800    0.04620    1.000
    O45      O        0.37860    0.72760    0.94490    1.000
    O46      O        0.35450    0.63960    0.16720    1.000
    O47      O        0.27730    0.73310    0.82890    1.000
    O48      O        0.41690    0.69700    0.83250    1.000
    O49      O        0.37520    0.92270    0.86160    1.000
    O50      O        0.25140    0.46160    0.09930    1.000
    O51      O        0.39030    0.40070    0.14980    1.000
    O52      O        0.23650    0.99110    0.76150    1.000
    H4       H        0.22000    0.96000    0.29000    1.000
    Ga13     Ga       0.92480    0.92810    0.49890    1.000
    Ga14     Ga       0.80940    0.42090    0.33880    1.000
    Ga15     Ga       0.80970    0.18250    0.24060    1.000
    P13      P        0.91880    0.17230    0.39510    1.000
    P14      P        0.85910    0.72800    0.36840    1.000
    P15      P        0.83440    0.98040    0.61510    1.000
    F13      F        0.99170    0.07730    0.55010    1.000
    F14      F        0.85420    0.36230    0.26030    1.000
    F15      F        0.75560    0.24650    0.30910    1.000
    O53      O        0.88690    0.31420    0.40060    1.000
    O54      O        0.88150    0.06980    0.43340    1.000
    O55      O        0.00760    0.18160    0.42830    1.000
    O56      O        0.90200    0.12930    0.31690    1.000
    O57      O        0.84760    0.94200    0.54620    1.000
    O58      O        0.87860    0.77240    0.44490    1.000
    O59      O        0.85450    0.86040    0.66720    1.000
    O60      O        0.77730    0.76690    0.32890    1.000
    O61      O        0.91690    0.80300    0.33250    1.000
    O62      O        0.87520    0.57730    0.36160    1.000
    O63      O        0.75140    0.03840    0.59930    1.000
    O64      O        0.89030    0.09930    0.64980    1.000
    O65      O        0.73650    0.50890    0.26150    1.000
    H5       H        0.72000    0.54000    0.79000    1.000
    Ga16     Ga       0.42480    0.42810    0.49890    1.000
    Ga17     Ga       0.30940    0.92090    0.33880    1.000
    Ga18     Ga       0.30970    0.68250    0.24060    1.000
    P16      P        0.41880    0.67230    0.39510    1.000
    P17      P        0.35910    0.22800    0.36840    1.000
    P18      P        0.33440    0.48040    0.61510    1.000
    F16      F        0.49170    0.57730    0.55010    1.000
    F17      F        0.35420    0.86230    0.26030    1.000
    F18      F        0.25560    0.74650    0.30910    1.000
    O66      O        0.38690    0.81420    0.40060    1.000
    O67      O        0.38150    0.56980    0.43340    1.000
    O68      O        0.50760    0.68160    0.42830    1.000
    O69      O        0.40200    0.62930    0.31690    1.000
    O70      O        0.34760    0.44200    0.54620    1.000
    O71      O        0.37860    0.27240    0.44490    1.000
    O72      O        0.35450    0.36040    0.66720    1.000
    O73      O        0.27730    0.26690    0.32890    1.000
    O74      O        0.41690    0.30300    0.33250    1.000
    O75      O        0.37520    0.07730    0.36160    1.000
    O76      O        0.25140    0.53840    0.59930    1.000
    O77      O        0.39030    0.59930    0.64980    1.000
    O78      O        0.23650    0.00890    0.26150    1.000
    H6       H        0.22000    0.04000    0.79000    1.000
    Ga19     Ga       0.07520    0.92810    0.00110    1.000
    Ga20     Ga       0.19060    0.42090    0.16120    1.000
    Ga21     Ga       0.19030    0.18250    0.25940    1.000
    P19      P        0.08120    0.17230    0.10490    1.000
    P20      P        0.14090    0.72800    0.13160    1.000
    P21      P        0.16560    0.98040    0.88490    1.000
    F19      F        0.00830    0.07730    0.94990    1.000
    F20      F        0.14580    0.36230    0.23970    1.000
    F21      F        0.24440    0.24650    0.19090    1.000
    O79      O        0.11310    0.31420    0.09940    1.000
    O80      O        0.11850    0.06980    0.06660    1.000
    O81      O        0.99240    0.18160    0.07170    1.000
    O82      O        0.09800    0.12930    0.18310    1.000
    O83      O        0.15240    0.94200    0.95380    1.000
    O84      O        0.12140    0.77240    0.05510    1.000
    O85      O        0.14550    0.86040    0.83280    1.000
    O86      O        0.22270    0.76690    0.17110    1.000
    O87      O        0.08310    0.80300    0.16750    1.000
    O88      O        0.12480    0.57730    0.13840    1.000
    O89      O        0.24860    0.03840    0.90070    1.000
    O90      O        0.10970    0.09930    0.85020    1.000
    O91      O        0.26350    0.50890    0.23850    1.000
    H7       H        0.28000    0.54000    0.71000    1.000
    Ga22     Ga       0.57520    0.42810    0.00110    1.000
    Ga23     Ga       0.69060    0.92090    0.16120    1.000
    Ga24     Ga       0.69030    0.68250    0.25940    1.000
    P22      P        0.58120    0.67230    0.10490    1.000
    P23      P        0.64090    0.22800    0.13160    1.000
    P24      P        0.66560    0.48040    0.88490    1.000
    F22      F        0.50830    0.57730    0.94990    1.000
    F23      F        0.64580    0.86230    0.23970    1.000
    F24      F        0.74440    0.74650    0.19090    1.000
    O92      O        0.61310    0.81420    0.09940    1.000
    O93      O        0.61850    0.56980    0.06660    1.000
    O94      O        0.49240    0.68160    0.07170    1.000
    O95      O        0.59800    0.62930    0.18310    1.000
    O96      O        0.65240    0.44200    0.95380    1.000
    O97      O        0.62140    0.27240    0.05510    1.000
    O98      O        0.64550    0.36040    0.83280    1.000
    O99      O        0.72270    0.26690    0.17110    1.000
    O100     O        0.58310    0.30300    0.16750    1.000
    O101     O        0.62480    0.07730    0.13840    1.000
    O102     O        0.74860    0.53840    0.90070    1.000
    O103     O        0.60970    0.59930    0.85020    1.000
    O104     O        0.76350    0.00890    0.23850    1.000
    H8       H        0.78000    0.04000    0.71000    1.000
