# CIF file generated by openbabel 3.1.0, see https://openbabel.org
data_I
_chemical_name_common 'image0'
_cell_length_a 21.9718
_cell_length_b 17.3189
_cell_length_c 17.7104
_cell_angle_alpha 90
_cell_angle_beta 90
_cell_angle_gamma 90
_space_group_name_H-M_alt 'P 1'
_space_group_name_Hall 'P 1'
loop_
    _symmetry_equiv_pos_as_xyz
    x,y,z
loop_
    _atom_site_label
    _atom_site_type_symbol
    _atom_site_fract_x
    _atom_site_fract_y
    _atom_site_fract_z
    _atom_site_occupancy
    Cd1      Cd       0.37679    0.53771    0.06949    1.000
    Cd2      Cd       0.24217    0.59084    0.96765    1.000
    O1       O        0.26750    0.51660    0.08600    1.000
    O2       O        0.20990    0.46330    0.99810    1.000
    O3       O        0.19710    0.42400    0.34700    1.000
    O4       O        0.25070    0.31720    0.36490    1.000
    O5       O        0.13750    0.14610    0.13130    1.000
    O6       O        0.19360    0.17320    0.03120    1.000
    O7       O        0.10830    0.05900    0.48610    1.000
    O8       O        0.16760    0.97280    0.43570    1.000
    N1       N        0.39560    0.45840    0.16880    1.000
    N2       N        0.65730    0.14010    0.47180    1.000
    C1       C        0.22240    0.39540    0.11320    1.000
    C2       C        0.20790    0.32370    0.08530    1.000
    H1       H        0.20660    0.31640    0.03330    1.000
    C3       C        0.19520    0.26170    0.13260    1.000
    C4       C        0.19800    0.27160    0.21160    1.000
    C5       C        0.21430    0.34560    0.24000    1.000
    C6       C        0.22600    0.40510    0.19050    1.000
    H2       H        0.23660    0.45330    0.20960    1.000
    C7       C        0.23480    0.46230    0.06130    1.000
    C8       C        0.22150    0.36150    0.32350    1.000
    C9       C        0.17490    0.18800    0.09540    1.000
    C10      C        0.14360    0.03800    0.43510    1.000
    C11      C        0.15760    0.09540    0.37270    1.000
    C12      C        0.20590    0.08600    0.32410    1.000
    H3       H        0.22950    0.04160    0.32730    1.000
    C13      C        0.21980    0.14160    0.27050    1.000
    H4       H        0.25280    0.13460    0.23820    1.000
    C14      C        0.18440    0.20760    0.26520    1.000
    C15      C        0.13490    0.21570    0.31340    1.000
    H5       H        0.11010    0.25900    0.30950    1.000
    C16      C        0.12220    0.16050    0.36660    1.000
    H6       H        0.08920    0.16710    0.39890    1.000
    C17      C        0.37640    0.38380    0.16510    1.000
    H7       H        0.36110    0.36510    0.11970    1.000
    C18      C        0.37900    0.33410    0.22790    1.000
    H8       H        0.36500    0.28350    0.22430    1.000
    C19      C        0.40340    0.36250    0.29670    1.000
    C20      C        0.42420    0.43600    0.29700    1.000
    H9       H        0.44210    0.45570    0.34060    1.000
    C21      C        0.41920    0.48250    0.23360    1.000
    H10      H        0.43320    0.53310    0.23670    1.000
    C22      C        0.40780    0.32340    0.37340    1.000
    H11      H        0.38900    0.35780    0.40980    1.000
    H12      H        0.38260    0.27740    0.37120    1.000
    C23      C        0.46870    0.29920    0.40580    1.000
    H13      H        0.46340    0.28360    0.45790    1.000
    H14      H        0.49630    0.34290    0.40480    1.000
    C24      C        0.49640    0.23300    0.36140    1.000
    H15      H        0.50570    0.25000    0.31060    1.000
    H16      H        0.46730    0.19100    0.35810    1.000
    C25      C        0.64040    0.12540    0.40060    1.000
    H17      H        0.66570    0.09290    0.37300    1.000
    C26      C        0.59040    0.15280    0.36420    1.000
    H18      H        0.58130    0.13620    0.31560    1.000
    C27      C        0.55420    0.20470    0.39960    1.000
    C28      C        0.63500    0.20780    0.49340    1.000
    H19      H        0.65530    0.23770    0.52900    1.000
    C29      C        0.58200    0.23270    0.46240    1.000
    H20      H        0.56250    0.27330    0.48680    1.000
    C30      C        0.40110    0.29320    0.34940    1.000
    H21      H        0.38150    0.30680    0.39660    1.000
    H22      H        0.37880    0.25110    0.32640    1.000
    C31      C        0.46700    0.27020    0.36310    1.000
    H23      H        0.48430    0.25080    0.31640    1.000
    H24      H        0.49010    0.31530    0.37820    1.000
    C32      C        0.47230    0.20860    0.42380    1.000
    H25      H        0.45720    0.22970    0.47090    1.000
    H26      H        0.44630    0.16560    0.41020    1.000
    C33      C        0.62610    0.09980    0.42030    1.000
    H27      H        0.64240    0.05490    0.39960    1.000
    C34      C        0.57020    0.12550    0.39850    1.000
    H28      H        0.55390    0.10530    0.35430    1.000
    C35      C        0.53630    0.17850    0.43660    1.000
    C36      C        0.61890    0.17820    0.51710    1.000
    H29      H        0.63360    0.18970    0.56510    1.000
    C37      C        0.56120    0.20220    0.50240    1.000
    H30      H        0.53990    0.23350    0.53590    1.000
    Cd3      Cd       0.12321    0.96229    0.56949    1.000
    Cd4      Cd       0.25783    0.90916    0.46765    1.000
    O9       O        0.23250    0.98340    0.58600    1.000
    O10      O        0.29010    0.03670    0.49810    1.000
    O11      O        0.30290    0.07600    0.84700    1.000
    O12      O        0.24930    0.18280    0.86490    1.000
    O13      O        0.36250    0.35390    0.63130    1.000
    O14      O        0.30640    0.32680    0.53120    1.000
    O15      O        0.39170    0.44100    0.98610    1.000
    O16      O        0.33240    0.52720    0.93570    1.000
    N3       N        0.10440    0.04160    0.66880    1.000
    N4       N        0.84270    0.35990    0.97180    1.000
    C38      C        0.27760    0.10460    0.61320    1.000
    C39      C        0.29210    0.17630    0.58530    1.000
    H31      H        0.29340    0.18360    0.53330    1.000
    C40      C        0.30480    0.23830    0.63260    1.000
    C41      C        0.30200    0.22840    0.71160    1.000
    C42      C        0.28570    0.15440    0.74000    1.000
    C43      C        0.27400    0.09490    0.69050    1.000
    H32      H        0.26340    0.04670    0.70960    1.000
    C44      C        0.26520    0.03770    0.56130    1.000
    C45      C        0.27850    0.13850    0.82350    1.000
    C46      C        0.32510    0.31200    0.59540    1.000
    C47      C        0.35640    0.46200    0.93510    1.000
    C48      C        0.34240    0.40460    0.87270    1.000
    C49      C        0.29410    0.41400    0.82410    1.000
    H33      H        0.27050    0.45840    0.82730    1.000
    C50      C        0.28020    0.35840    0.77050    1.000
    H34      H        0.24720    0.36540    0.73820    1.000
    C51      C        0.31560    0.29240    0.76520    1.000
    C52      C        0.36510    0.28430    0.81340    1.000
    H35      H        0.38990    0.24100    0.80950    1.000
    C53      C        0.37780    0.33950    0.86660    1.000
    H36      H        0.41080    0.33290    0.89890    1.000
    C54      C        0.12360    0.11620    0.66510    1.000
    H37      H        0.13890    0.13490    0.61970    1.000
    C55      C        0.12100    0.16590    0.72790    1.000
    H38      H        0.13500    0.21650    0.72430    1.000
    C56      C        0.09660    0.13750    0.79670    1.000
    C57      C        0.07580    0.06400    0.79700    1.000
    H39      H        0.05790    0.04430    0.84060    1.000
    C58      C        0.08080    0.01750    0.73360    1.000
    H40      H        0.06680    0.96690    0.73670    1.000
    C59      C        0.09220    0.17660    0.87340    1.000
    H41      H        0.11100    0.14220    0.90980    1.000
    H42      H        0.11740    0.22260    0.87120    1.000
    C60      C        0.03130    0.20080    0.90580    1.000
    H43      H        0.03660    0.21640    0.95790    1.000
    H44      H        0.00370    0.15710    0.90480    1.000
    C61      C        0.00360    0.26700    0.86140    1.000
    H45      H        0.99430    0.25000    0.81060    1.000
    H46      H        0.03270    0.30900    0.85810    1.000
    C62      C        0.85960    0.37460    0.90060    1.000
    H47      H        0.83430    0.40710    0.87300    1.000
    C63      C        0.90960    0.34720    0.86420    1.000
    H48      H        0.91870    0.36380    0.81560    1.000
    C64      C        0.94580    0.29530    0.89960    1.000
    C65      C        0.86500    0.29220    0.99340    1.000
    H49      H        0.84470    0.26230    0.02900    1.000
    C66      C        0.91800    0.26730    0.96240    1.000
    H50      H        0.93750    0.22670    0.98680    1.000
    C67      C        0.09890    0.20680    0.84940    1.000
    H51      H        0.11850    0.19320    0.89660    1.000
    H52      H        0.12120    0.24890    0.82640    1.000
    C68      C        0.03300    0.22980    0.86310    1.000
    H53      H        0.01570    0.24920    0.81640    1.000
    H54      H        0.00990    0.18470    0.87820    1.000
    C69      C        0.02770    0.29140    0.92380    1.000
    H55      H        0.04280    0.27030    0.97090    1.000
    H56      H        0.05370    0.33440    0.91020    1.000
    C70      C        0.87390    0.40020    0.92030    1.000
    H57      H        0.85760    0.44510    0.89960    1.000
    C71      C        0.92980    0.37450    0.89850    1.000
    H58      H        0.94610    0.39470    0.85430    1.000
    C72      C        0.96370    0.32150    0.93660    1.000
    C73      C        0.88110    0.32180    0.01710    1.000
    H59      H        0.86640    0.31030    0.06510    1.000
    C74      C        0.93880    0.29780    0.00240    1.000
    H60      H        0.96010    0.26650    0.03590    1.000
    Cd5      Cd       0.62321    0.53771    0.43051    1.000
    Cd6      Cd       0.75783    0.59084    0.53235    1.000
    O17      O        0.73250    0.51660    0.41400    1.000
    O18      O        0.79010    0.46330    0.50190    1.000
    O19      O        0.80290    0.42400    0.15300    1.000
    O20      O        0.74930    0.31720    0.13510    1.000
    O21      O        0.86250    0.14610    0.36870    1.000
    O22      O        0.80640    0.17320    0.46880    1.000
    O23      O        0.89170    0.05900    0.01390    1.000
    O24      O        0.83240    0.97280    0.06430    1.000
    N5       N        0.60440    0.45840    0.33120    1.000
    N6       N        0.34270    0.14010    0.02820    1.000
    C75      C        0.77760    0.39540    0.38680    1.000
    C76      C        0.79210    0.32370    0.41470    1.000
    H61      H        0.79340    0.31640    0.46670    1.000
    C77      C        0.80480    0.26170    0.36740    1.000
    C78      C        0.80200    0.27160    0.28840    1.000
    C79      C        0.78570    0.34560    0.26000    1.000
    C80      C        0.77400    0.40510    0.30950    1.000
    H62      H        0.76340    0.45330    0.29040    1.000
    C81      C        0.76520    0.46230    0.43870    1.000
    C82      C        0.77850    0.36150    0.17650    1.000
    C83      C        0.82510    0.18800    0.40460    1.000
    C84      C        0.85640    0.03800    0.06490    1.000
    C85      C        0.84240    0.09540    0.12730    1.000
    C86      C        0.79410    0.08600    0.17590    1.000
    H63      H        0.77050    0.04160    0.17270    1.000
    C87      C        0.78020    0.14160    0.22950    1.000
    H64      H        0.74720    0.13460    0.26180    1.000
    C88      C        0.81560    0.20760    0.23480    1.000
    C89      C        0.86510    0.21570    0.18660    1.000
    H65      H        0.88990    0.25900    0.19050    1.000
    C90      C        0.87780    0.16050    0.13340    1.000
    H66      H        0.91080    0.16710    0.10110    1.000
    C91      C        0.62360    0.38380    0.33490    1.000
    H67      H        0.63890    0.36510    0.38030    1.000
    C92      C        0.62100    0.33410    0.27210    1.000
    H68      H        0.63500    0.28350    0.27570    1.000
    C93      C        0.59660    0.36250    0.20330    1.000
    C94      C        0.57580    0.43600    0.20300    1.000
    H69      H        0.55790    0.45570    0.15940    1.000
    C95      C        0.58080    0.48250    0.26640    1.000
    H70      H        0.56680    0.53310    0.26330    1.000
    C96      C        0.59220    0.32340    0.12660    1.000
    H71      H        0.61100    0.35780    0.09020    1.000
    H72      H        0.61740    0.27740    0.12880    1.000
    C97      C        0.53130    0.29920    0.09420    1.000
    H73      H        0.53660    0.28360    0.04210    1.000
    H74      H        0.50370    0.34290    0.09520    1.000
    C98      C        0.50360    0.23300    0.13860    1.000
    H75      H        0.49430    0.25000    0.18940    1.000
    H76      H        0.53270    0.19100    0.14190    1.000
    C99      C        0.35960    0.12540    0.09940    1.000
    H77      H        0.33430    0.09290    0.12700    1.000
    C100     C        0.40960    0.15280    0.13580    1.000
    H78      H        0.41870    0.13620    0.18440    1.000
    C101     C        0.44580    0.20470    0.10040    1.000
    C102     C        0.36500    0.20780    0.00660    1.000
    H79      H        0.34470    0.23770    0.97100    1.000
    C103     C        0.41800    0.23270    0.03760    1.000
    H80      H        0.43750    0.27330    0.01320    1.000
    C104     C        0.59890    0.29320    0.15060    1.000
    H81      H        0.61850    0.30680    0.10340    1.000
    H82      H        0.62120    0.25110    0.17360    1.000
    C105     C        0.53300    0.27020    0.13690    1.000
    H83      H        0.51570    0.25080    0.18360    1.000
    H84      H        0.50990    0.31530    0.12180    1.000
    C106     C        0.52770    0.20860    0.07620    1.000
    H85      H        0.54280    0.22970    0.02910    1.000
    H86      H        0.55370    0.16560    0.08980    1.000
    C107     C        0.37390    0.09980    0.07970    1.000
    H87      H        0.35760    0.05490    0.10040    1.000
    C108     C        0.42980    0.12550    0.10150    1.000
    H88      H        0.44610    0.10530    0.14570    1.000
    C109     C        0.46370    0.17850    0.06340    1.000
    C110     C        0.38110    0.17820    0.98290    1.000
    H89      H        0.36640    0.18970    0.93490    1.000
    C111     C        0.43880    0.20220    0.99760    1.000
    H90      H        0.46010    0.23350    0.96410    1.000
    Cd7      Cd       0.87679    0.96229    0.93051    1.000
    Cd8      Cd       0.74217    0.90916    0.03235    1.000
    O25      O        0.76750    0.98340    0.91400    1.000
    O26      O        0.70990    0.03670    0.00190    1.000
    O27      O        0.69710    0.07600    0.65300    1.000
    O28      O        0.75070    0.18280    0.63510    1.000
    O29      O        0.63750    0.35390    0.86870    1.000
    O30      O        0.69360    0.32680    0.96880    1.000
    O31      O        0.60830    0.44100    0.51390    1.000
    O32      O        0.66760    0.52720    0.56430    1.000
    N7       N        0.89560    0.04160    0.83120    1.000
    N8       N        0.15730    0.35990    0.52820    1.000
    C112     C        0.72240    0.10460    0.88680    1.000
    C113     C        0.70790    0.17630    0.91470    1.000
    H91      H        0.70660    0.18360    0.96670    1.000
    C114     C        0.69520    0.23830    0.86740    1.000
    C115     C        0.69800    0.22840    0.78840    1.000
    C116     C        0.71430    0.15440    0.76000    1.000
    C117     C        0.72600    0.09490    0.80950    1.000
    H92      H        0.73660    0.04670    0.79040    1.000
    C118     C        0.73480    0.03770    0.93870    1.000
    C119     C        0.72150    0.13850    0.67650    1.000
    C120     C        0.67490    0.31200    0.90460    1.000
    C121     C        0.64360    0.46200    0.56490    1.000
    C122     C        0.65760    0.40460    0.62730    1.000
    C123     C        0.70590    0.41400    0.67590    1.000
    H93      H        0.72950    0.45840    0.67270    1.000
    C124     C        0.71980    0.35840    0.72950    1.000
    H94      H        0.75280    0.36540    0.76180    1.000
    C125     C        0.68440    0.29240    0.73480    1.000
    C126     C        0.63490    0.28430    0.68660    1.000
    H95      H        0.61010    0.24100    0.69050    1.000
    C127     C        0.62220    0.33950    0.63340    1.000
    H96      H        0.58920    0.33290    0.60110    1.000
    C128     C        0.87640    0.11620    0.83490    1.000
    H97      H        0.86110    0.13490    0.88030    1.000
    C129     C        0.87900    0.16590    0.77210    1.000
    H98      H        0.86500    0.21650    0.77570    1.000
    C130     C        0.90340    0.13750    0.70330    1.000
    C131     C        0.92420    0.06400    0.70300    1.000
    H99      H        0.94210    0.04430    0.65940    1.000
    C132     C        0.91920    0.01750    0.76640    1.000
    H100     H        0.93320    0.96690    0.76330    1.000
    C133     C        0.90780    0.17660    0.62660    1.000
    H101     H        0.88900    0.14220    0.59020    1.000
    H102     H        0.88260    0.22260    0.62880    1.000
    C134     C        0.96870    0.20080    0.59420    1.000
    H103     H        0.96340    0.21640    0.54210    1.000
    H104     H        0.99630    0.15710    0.59520    1.000
    C135     C        0.99640    0.26700    0.63860    1.000
    H105     H        0.00570    0.25000    0.68940    1.000
    H106     H        0.96730    0.30900    0.64190    1.000
    C136     C        0.14040    0.37460    0.59940    1.000
    H107     H        0.16570    0.40710    0.62700    1.000
    C137     C        0.09040    0.34720    0.63580    1.000
    H108     H        0.08130    0.36380    0.68440    1.000
    C138     C        0.05420    0.29530    0.60040    1.000
    C139     C        0.13500    0.29220    0.50660    1.000
    H109     H        0.15530    0.26230    0.47100    1.000
    C140     C        0.08200    0.26730    0.53760    1.000
    H110     H        0.06250    0.22670    0.51320    1.000
    C141     C        0.90110    0.20680    0.65060    1.000
    H111     H        0.88150    0.19320    0.60340    1.000
    H112     H        0.87880    0.24890    0.67360    1.000
    C142     C        0.96700    0.22980    0.63690    1.000
    H113     H        0.98430    0.24920    0.68360    1.000
    H114     H        0.99010    0.18470    0.62180    1.000
    C143     C        0.97230    0.29140    0.57620    1.000
    H115     H        0.95720    0.27030    0.52910    1.000
    H116     H        0.94630    0.33440    0.58980    1.000
    C144     C        0.12610    0.40020    0.57970    1.000
    H117     H        0.14240    0.44510    0.60040    1.000
    C145     C        0.07020    0.37450    0.60150    1.000
    H118     H        0.05390    0.39470    0.64570    1.000
    C146     C        0.03630    0.32150    0.56340    1.000
    C147     C        0.11890    0.32180    0.48290    1.000
    H119     H        0.13360    0.31030    0.43490    1.000
    C148     C        0.06120    0.29780    0.49760    1.000
    H120     H        0.03990    0.26650    0.46410    1.000
    Cd9      Cd       0.62321    0.46229    0.93051    1.000
    Cd10     Cd       0.75783    0.40916    0.03235    1.000
    O33      O        0.73250    0.48340    0.91400    1.000
    O34      O        0.79010    0.53670    0.00190    1.000
    O35      O        0.80290    0.57600    0.65300    1.000
    O36      O        0.74930    0.68280    0.63510    1.000
    O37      O        0.86250    0.85390    0.86870    1.000
    O38      O        0.80640    0.82680    0.96880    1.000
    O39      O        0.89170    0.94100    0.51390    1.000
    O40      O        0.83240    0.02720    0.56430    1.000
    N9       N        0.60440    0.54160    0.83120    1.000
    N10      N        0.34270    0.85990    0.52820    1.000
    C149     C        0.77760    0.60460    0.88680    1.000
    C150     C        0.79210    0.67630    0.91470    1.000
    H121     H        0.79340    0.68360    0.96670    1.000
    C151     C        0.80480    0.73830    0.86740    1.000
    C152     C        0.80200    0.72840    0.78840    1.000
    C153     C        0.78570    0.65440    0.76000    1.000
    C154     C        0.77400    0.59490    0.80950    1.000
    H122     H        0.76340    0.54670    0.79040    1.000
    C155     C        0.76520    0.53770    0.93870    1.000
    C156     C        0.77850    0.63850    0.67650    1.000
    C157     C        0.82510    0.81200    0.90460    1.000
    C158     C        0.85640    0.96200    0.56490    1.000
    C159     C        0.84240    0.90460    0.62730    1.000
    C160     C        0.79410    0.91400    0.67590    1.000
    H123     H        0.77050    0.95840    0.67270    1.000
    C161     C        0.78020    0.85840    0.72950    1.000
    H124     H        0.74720    0.86540    0.76180    1.000
    C162     C        0.81560    0.79240    0.73480    1.000
    C163     C        0.86510    0.78430    0.68660    1.000
    H125     H        0.88990    0.74100    0.69050    1.000
    C164     C        0.87780    0.83950    0.63340    1.000
    H126     H        0.91080    0.83290    0.60110    1.000
    C165     C        0.62360    0.61620    0.83490    1.000
    H127     H        0.63890    0.63490    0.88030    1.000
    C166     C        0.62100    0.66590    0.77210    1.000
    H128     H        0.63500    0.71650    0.77570    1.000
    C167     C        0.59660    0.63750    0.70330    1.000
    C168     C        0.57580    0.56400    0.70300    1.000
    H129     H        0.55790    0.54430    0.65940    1.000
    C169     C        0.58080    0.51750    0.76640    1.000
    H130     H        0.56680    0.46690    0.76330    1.000
    C170     C        0.59220    0.67660    0.62660    1.000
    H131     H        0.61100    0.64220    0.59020    1.000
    H132     H        0.61740    0.72260    0.62880    1.000
    C171     C        0.53130    0.70080    0.59420    1.000
    H133     H        0.53660    0.71640    0.54210    1.000
    H134     H        0.50370    0.65710    0.59520    1.000
    C172     C        0.50360    0.76700    0.63860    1.000
    H135     H        0.49430    0.75000    0.68940    1.000
    H136     H        0.53270    0.80900    0.64190    1.000
    C173     C        0.35960    0.87460    0.59940    1.000
    H137     H        0.33430    0.90710    0.62700    1.000
    C174     C        0.40960    0.84720    0.63580    1.000
    H138     H        0.41870    0.86380    0.68440    1.000
    C175     C        0.44580    0.79530    0.60040    1.000
    C176     C        0.36500    0.79220    0.50660    1.000
    H139     H        0.34470    0.76230    0.47100    1.000
    C177     C        0.41800    0.76730    0.53760    1.000
    H140     H        0.43750    0.72670    0.51320    1.000
    C178     C        0.59890    0.70680    0.65060    1.000
    H141     H        0.61850    0.69320    0.60340    1.000
    H142     H        0.62120    0.74890    0.67360    1.000
    C179     C        0.53300    0.72980    0.63690    1.000
    H143     H        0.51570    0.74920    0.68360    1.000
    H144     H        0.50990    0.68470    0.62180    1.000
    C180     C        0.52770    0.79140    0.57620    1.000
    H145     H        0.54280    0.77030    0.52910    1.000
    H146     H        0.55370    0.83440    0.58980    1.000
    C181     C        0.37390    0.90020    0.57970    1.000
    H147     H        0.35760    0.94510    0.60040    1.000
    C182     C        0.42980    0.87450    0.60150    1.000
    H148     H        0.44610    0.89470    0.64570    1.000
    C183     C        0.46370    0.82150    0.56340    1.000
    C184     C        0.38110    0.82180    0.48290    1.000
    H149     H        0.36640    0.81030    0.43490    1.000
    C185     C        0.43880    0.79780    0.49760    1.000
    H150     H        0.46010    0.76650    0.46410    1.000
    Cd11     Cd       0.87679    0.03771    0.43051    1.000
    Cd12     Cd       0.74217    0.09084    0.53235    1.000
    O41      O        0.76750    0.01660    0.41400    1.000
    O42      O        0.70990    0.96330    0.50190    1.000
    O43      O        0.69710    0.92400    0.15300    1.000
    O44      O        0.75070    0.81720    0.13510    1.000
    O45      O        0.63750    0.64610    0.36870    1.000
    O46      O        0.69360    0.67320    0.46880    1.000
    O47      O        0.60830    0.55900    0.01390    1.000
    O48      O        0.66760    0.47280    0.06430    1.000
    N11      N        0.89560    0.95840    0.33120    1.000
    N12      N        0.15730    0.64010    0.02820    1.000
    C186     C        0.72240    0.89540    0.38680    1.000
    C187     C        0.70790    0.82370    0.41470    1.000
    H151     H        0.70660    0.81640    0.46670    1.000
    C188     C        0.69520    0.76170    0.36740    1.000
    C189     C        0.69800    0.77160    0.28840    1.000
    C190     C        0.71430    0.84560    0.26000    1.000
    C191     C        0.72600    0.90510    0.30950    1.000
    H152     H        0.73660    0.95330    0.29040    1.000
    C192     C        0.73480    0.96230    0.43870    1.000
    C193     C        0.72150    0.86150    0.17650    1.000
    C194     C        0.67490    0.68800    0.40460    1.000
    C195     C        0.64360    0.53800    0.06490    1.000
    C196     C        0.65760    0.59540    0.12730    1.000
    C197     C        0.70590    0.58600    0.17590    1.000
    H153     H        0.72950    0.54160    0.17270    1.000
    C198     C        0.71980    0.64160    0.22950    1.000
    H154     H        0.75280    0.63460    0.26180    1.000
    C199     C        0.68440    0.70760    0.23480    1.000
    C200     C        0.63490    0.71570    0.18660    1.000
    H155     H        0.61010    0.75900    0.19050    1.000
    C201     C        0.62220    0.66050    0.13340    1.000
    H156     H        0.58920    0.66710    0.10110    1.000
    C202     C        0.87640    0.88380    0.33490    1.000
    H157     H        0.86110    0.86510    0.38030    1.000
    C203     C        0.87900    0.83410    0.27210    1.000
    H158     H        0.86500    0.78350    0.27570    1.000
    C204     C        0.90340    0.86250    0.20330    1.000
    C205     C        0.92420    0.93600    0.20300    1.000
    H159     H        0.94210    0.95570    0.15940    1.000
    C206     C        0.91920    0.98250    0.26640    1.000
    H160     H        0.93320    0.03310    0.26330    1.000
    C207     C        0.90780    0.82340    0.12660    1.000
    H161     H        0.88900    0.85780    0.09020    1.000
    H162     H        0.88260    0.77740    0.12880    1.000
    C208     C        0.96870    0.79920    0.09420    1.000
    H163     H        0.96340    0.78360    0.04210    1.000
    H164     H        0.99630    0.84290    0.09520    1.000
    C209     C        0.99640    0.73300    0.13860    1.000
    H165     H        0.00570    0.75000    0.18940    1.000
    H166     H        0.96730    0.69100    0.14190    1.000
    C210     C        0.14040    0.62540    0.09940    1.000
    H167     H        0.16570    0.59290    0.12700    1.000
    C211     C        0.09040    0.65280    0.13580    1.000
    H168     H        0.08130    0.63620    0.18440    1.000
    C212     C        0.05420    0.70470    0.10040    1.000
    C213     C        0.13500    0.70780    0.00660    1.000
    H169     H        0.15530    0.73770    0.97100    1.000
    C214     C        0.08200    0.73270    0.03760    1.000
    H170     H        0.06250    0.77330    0.01320    1.000
    C215     C        0.90110    0.79320    0.15060    1.000
    H171     H        0.88150    0.80680    0.10340    1.000
    H172     H        0.87880    0.75110    0.17360    1.000
    C216     C        0.96700    0.77020    0.13690    1.000
    H173     H        0.98430    0.75080    0.18360    1.000
    H174     H        0.99010    0.81530    0.12180    1.000
    C217     C        0.97230    0.70860    0.07620    1.000
    H175     H        0.95720    0.72970    0.02910    1.000
    H176     H        0.94630    0.66560    0.08980    1.000
    C218     C        0.12610    0.59980    0.07970    1.000
    H177     H        0.14240    0.55490    0.10040    1.000
    C219     C        0.07020    0.62550    0.10150    1.000
    H178     H        0.05390    0.60530    0.14570    1.000
    C220     C        0.03630    0.67850    0.06340    1.000
    C221     C        0.11890    0.67820    0.98290    1.000
    H179     H        0.13360    0.68970    0.93490    1.000
    C222     C        0.06120    0.70220    0.99760    1.000
    H180     H        0.03990    0.73350    0.96410    1.000
    Cd13     Cd       0.37679    0.46229    0.56949    1.000
    Cd14     Cd       0.24217    0.40916    0.46765    1.000
    O49      O        0.26750    0.48340    0.58600    1.000
    O50      O        0.20990    0.53670    0.49810    1.000
    O51      O        0.19710    0.57600    0.84700    1.000
    O52      O        0.25070    0.68280    0.86490    1.000
    O53      O        0.13750    0.85390    0.63130    1.000
    O54      O        0.19360    0.82680    0.53120    1.000
    O55      O        0.10830    0.94100    0.98610    1.000
    O56      O        0.16760    0.02720    0.93570    1.000
    N13      N        0.39560    0.54160    0.66880    1.000
    N14      N        0.65730    0.85990    0.97180    1.000
    C223     C        0.22240    0.60460    0.61320    1.000
    C224     C        0.20790    0.67630    0.58530    1.000
    H181     H        0.20660    0.68360    0.53330    1.000
    C225     C        0.19520    0.73830    0.63260    1.000
    C226     C        0.19800    0.72840    0.71160    1.000
    C227     C        0.21430    0.65440    0.74000    1.000
    C228     C        0.22600    0.59490    0.69050    1.000
    H182     H        0.23660    0.54670    0.70960    1.000
    C229     C        0.23480    0.53770    0.56130    1.000
    C230     C        0.22150    0.63850    0.82350    1.000
    C231     C        0.17490    0.81200    0.59540    1.000
    C232     C        0.14360    0.96200    0.93510    1.000
    C233     C        0.15760    0.90460    0.87270    1.000
    C234     C        0.20590    0.91400    0.82410    1.000
    H183     H        0.22950    0.95840    0.82730    1.000
    C235     C        0.21980    0.85840    0.77050    1.000
    H184     H        0.25280    0.86540    0.73820    1.000
    C236     C        0.18440    0.79240    0.76520    1.000
    C237     C        0.13490    0.78430    0.81340    1.000
    H185     H        0.11010    0.74100    0.80950    1.000
    C238     C        0.12220    0.83950    0.86660    1.000
    H186     H        0.08920    0.83290    0.89890    1.000
    C239     C        0.37640    0.61620    0.66510    1.000
    H187     H        0.36110    0.63490    0.61970    1.000
    C240     C        0.37900    0.66590    0.72790    1.000
    H188     H        0.36500    0.71650    0.72430    1.000
    C241     C        0.40340    0.63750    0.79670    1.000
    C242     C        0.42420    0.56400    0.79700    1.000
    H189     H        0.44210    0.54430    0.84060    1.000
    C243     C        0.41920    0.51750    0.73360    1.000
    H190     H        0.43320    0.46690    0.73670    1.000
    C244     C        0.40780    0.67660    0.87340    1.000
    H191     H        0.38900    0.64220    0.90980    1.000
    H192     H        0.38260    0.72260    0.87120    1.000
    C245     C        0.46870    0.70080    0.90580    1.000
    H193     H        0.46340    0.71640    0.95790    1.000
    H194     H        0.49630    0.65710    0.90480    1.000
    C246     C        0.49640    0.76700    0.86140    1.000
    H195     H        0.50570    0.75000    0.81060    1.000
    H196     H        0.46730    0.80900    0.85810    1.000
    C247     C        0.64040    0.87460    0.90060    1.000
    H197     H        0.66570    0.90710    0.87300    1.000
    C248     C        0.59040    0.84720    0.86420    1.000
    H198     H        0.58130    0.86380    0.81560    1.000
    C249     C        0.55420    0.79530    0.89960    1.000
    C250     C        0.63500    0.79220    0.99340    1.000
    H199     H        0.65530    0.76230    0.02900    1.000
    C251     C        0.58200    0.76730    0.96240    1.000
    H200     H        0.56250    0.72670    0.98680    1.000
    C252     C        0.40110    0.70680    0.84940    1.000
    H201     H        0.38150    0.69320    0.89660    1.000
    H202     H        0.37880    0.74890    0.82640    1.000
    C253     C        0.46700    0.72980    0.86310    1.000
    H203     H        0.48430    0.74920    0.81640    1.000
    H204     H        0.49010    0.68470    0.87820    1.000
    C254     C        0.47230    0.79140    0.92380    1.000
    H205     H        0.45720    0.77030    0.97090    1.000
    H206     H        0.44630    0.83440    0.91020    1.000
    C255     C        0.62610    0.90020    0.92030    1.000
    H207     H        0.64240    0.94510    0.89960    1.000
    C256     C        0.57020    0.87450    0.89850    1.000
    H208     H        0.55390    0.89470    0.85430    1.000
    C257     C        0.53630    0.82150    0.93660    1.000
    C258     C        0.61890    0.82180    0.01710    1.000
    H209     H        0.63360    0.81030    0.06510    1.000
    C259     C        0.56120    0.79780    0.00240    1.000
    H210     H        0.53990    0.76650    0.03590    1.000
    Cd15     Cd       0.12321    0.03771    0.06949    1.000
    Cd16     Cd       0.25783    0.09084    0.96765    1.000
    O57      O        0.23250    0.01660    0.08600    1.000
    O58      O        0.29010    0.96330    0.99810    1.000
    O59      O        0.30290    0.92400    0.34700    1.000
    O60      O        0.24930    0.81720    0.36490    1.000
    O61      O        0.36250    0.64610    0.13130    1.000
    O62      O        0.30640    0.67320    0.03120    1.000
    O63      O        0.39170    0.55900    0.48610    1.000
    O64      O        0.33240    0.47280    0.43570    1.000
    N15      N        0.10440    0.95840    0.16880    1.000
    N16      N        0.84270    0.64010    0.47180    1.000
    C260     C        0.27760    0.89540    0.11320    1.000
    C261     C        0.29210    0.82370    0.08530    1.000
    H211     H        0.29340    0.81640    0.03330    1.000
    C262     C        0.30480    0.76170    0.13260    1.000
    C263     C        0.30200    0.77160    0.21160    1.000
    C264     C        0.28570    0.84560    0.24000    1.000
    C265     C        0.27400    0.90510    0.19050    1.000
    H212     H        0.26340    0.95330    0.20960    1.000
    C266     C        0.26520    0.96230    0.06130    1.000
    C267     C        0.27850    0.86150    0.32350    1.000
    C268     C        0.32510    0.68800    0.09540    1.000
    C269     C        0.35640    0.53800    0.43510    1.000
    C270     C        0.34240    0.59540    0.37270    1.000
    C271     C        0.29410    0.58600    0.32410    1.000
    H213     H        0.27050    0.54160    0.32730    1.000
    C272     C        0.28020    0.64160    0.27050    1.000
    H214     H        0.24720    0.63460    0.23820    1.000
    C273     C        0.31560    0.70760    0.26520    1.000
    C274     C        0.36510    0.71570    0.31340    1.000
    H215     H        0.38990    0.75900    0.30950    1.000
    C275     C        0.37780    0.66050    0.36660    1.000
    H216     H        0.41080    0.66710    0.39890    1.000
    C276     C        0.12360    0.88380    0.16510    1.000
    H217     H        0.13890    0.86510    0.11970    1.000
    C277     C        0.12100    0.83410    0.22790    1.000
    H218     H        0.13500    0.78350    0.22430    1.000
    C278     C        0.09660    0.86250    0.29670    1.000
    C279     C        0.07580    0.93600    0.29700    1.000
    H219     H        0.05790    0.95570    0.34060    1.000
    C280     C        0.08080    0.98250    0.23360    1.000
    H220     H        0.06680    0.03310    0.23670    1.000
    C281     C        0.09220    0.82340    0.37340    1.000
    H221     H        0.11100    0.85780    0.40980    1.000
    H222     H        0.11740    0.77740    0.37120    1.000
    C282     C        0.03130    0.79920    0.40580    1.000
    H223     H        0.03660    0.78360    0.45790    1.000
    H224     H        0.00370    0.84290    0.40480    1.000
    C283     C        0.00360    0.73300    0.36140    1.000
    H225     H        0.99430    0.75000    0.31060    1.000
    H226     H        0.03270    0.69100    0.35810    1.000
    C284     C        0.85960    0.62540    0.40060    1.000
    H227     H        0.83430    0.59290    0.37300    1.000
    C285     C        0.90960    0.65280    0.36420    1.000
    H228     H        0.91870    0.63620    0.31560    1.000
    C286     C        0.94580    0.70470    0.39960    1.000
    C287     C        0.86500    0.70780    0.49340    1.000
    H229     H        0.84470    0.73770    0.52900    1.000
    C288     C        0.91800    0.73270    0.46240    1.000
    H230     H        0.93750    0.77330    0.48680    1.000
    C289     C        0.09890    0.79320    0.34940    1.000
    H231     H        0.11850    0.80680    0.39660    1.000
    H232     H        0.12120    0.75110    0.32640    1.000
    C290     C        0.03300    0.77020    0.36310    1.000
    H233     H        0.01570    0.75080    0.31640    1.000
    H234     H        0.00990    0.81530    0.37820    1.000
    C291     C        0.02770    0.70860    0.42380    1.000
    H235     H        0.04280    0.72970    0.47090    1.000
    H236     H        0.05370    0.66560    0.41020    1.000
    C292     C        0.87390    0.59980    0.42030    1.000
    H237     H        0.85760    0.55490    0.39960    1.000
    C293     C        0.92980    0.62550    0.39850    1.000
    H238     H        0.94610    0.60530    0.35430    1.000
    C294     C        0.96370    0.67850    0.43660    1.000
    C295     C        0.88110    0.67820    0.51710    1.000
    H239     H        0.86640    0.68970    0.56510    1.000
    C296     C        0.93880    0.70220    0.50240    1.000
    H240     H        0.96010    0.73350    0.53590    1.000
