# CIF file generated by openbabel 3.1.0, see https://openbabel.org
data_I
_chemical_name_common 'ELOZEK_clean'
_cell_length_a 10.3515
_cell_length_b 21.3776
_cell_length_c 21.3776
_cell_angle_alpha 62.5534
_cell_angle_beta 80.7114
_cell_angle_gamma 99.2886
_space_group_name_H-M_alt 'P 1'
_space_group_name_Hall 'P 1'
loop_
    _symmetry_equiv_pos_as_xyz
    x,y,z
loop_
    _atom_site_label
    _atom_site_type_symbol
    _atom_site_fract_x
    _atom_site_fract_y
    _atom_site_fract_z
    _atom_site_occupancy
    P1       P        0.46919    0.59821    0.94314    1.000
    P2       P        0.49898    0.78194    0.72460    1.000
    P3       P        0.03173    0.43448    0.96409    1.000
    P4       P        0.30317    0.54544    0.72273    1.000
    P5       P        0.41233    0.94314    0.45865    1.000
    P6       P        0.22358    0.72460    0.49346    1.000
    P7       P        0.99582    0.96409    0.60143    1.000
    P8       P        0.02590    0.72273    0.73183    1.000
    P9       P        0.87098    0.45865    0.59821    1.000
    P10      P        0.71704    0.49346    0.78194    1.000
    P11      P        0.59725    0.60143    0.43448    1.000
    P12      P        0.75773    0.73183    0.54544    1.000
    P13      P        0.53081    0.40179    0.05686    1.000
    P14      P        0.50102    0.21806    0.27540    1.000
    P15      P        0.96827    0.56552    0.03591    1.000
    P16      P        0.69683    0.45456    0.27727    1.000
    P17      P        0.58767    0.05686    0.54135    1.000
    P18      P        0.77642    0.27540    0.50654    1.000
    P19      P        0.00418    0.03591    0.39857    1.000
    P20      P        0.97410    0.27727    0.26817    1.000
    P21      P        0.12902    0.54135    0.40179    1.000
    P22      P        0.28296    0.50654    0.21806    1.000
    P23      P        0.40275    0.39857    0.56552    1.000
    P24      P        0.24227    0.26817    0.45456    1.000
    H1       H        0.49330    0.83060    0.80200    1.000
    H2       H        0.34760    0.81100    0.79320    1.000
    H3       H        0.53590    0.71660    0.92440    1.000
    H4       H        0.57730    0.71830    0.84990    1.000
    H5       H        0.22380    0.73970    0.92800    1.000
    H6       H        0.30200    0.69370    0.98100    1.000
    H7       H        0.03840    0.33400    0.94890    1.000
    H8       H        0.95760    0.38140    0.89820    1.000
    H9       H        0.08200    0.49930    0.80550    1.000
    H10      H        0.09230    0.45570    0.76370    1.000
    H11      H        0.26390    0.38150    0.79060    1.000
    H12      H        0.22110    0.32360    0.87400    1.000
    H13      H        0.29530    0.80200    0.36740    1.000
    H14      H        0.14080    0.79320    0.39580    1.000
    H15      H        0.46030    0.92440    0.35900    1.000
    H16      H        0.42720    0.84990    0.43180    1.000
    H17      H        0.15180    0.92800    0.33230    1.000
    H18      H        0.28300    0.98100    0.32530    1.000
    H19      H        0.98730    0.94890    0.71710    1.000
    H20      H        0.85580    0.89820    0.72040    1.000
    H21      H        0.88750    0.80550    0.69520    1.000
    H22      H        0.85600    0.76370    0.78060    1.000
    H23      H        0.05450    0.79060    0.82790    1.000
    H24      H        0.09510    0.87400    0.80240    1.000
    H25      H        0.66270    0.36740    0.83060    1.000
    H26      H        0.53660    0.39580    0.81100    1.000
    H27      H        0.81930    0.35900    0.71660    1.000
    H28      H        0.85900    0.43180    0.71830    1.000
    H29      H        0.48410    0.33230    0.73970    1.000
    H30      H        0.60830    0.32530    0.69370    1.000
    H31      H        0.70440    0.71710    0.33400    1.000
    H32      H        0.57620    0.72040    0.38140    1.000
    H33      H        0.58270    0.69520    0.49930    1.000
    H34      H        0.63660    0.78060    0.45570    1.000
    H35      H        0.88240    0.82790    0.38150    1.000
    H36      H        0.89750    0.80240    0.32360    1.000
    H37      H        0.50670    0.16940    0.19800    1.000
    H38      H        0.65240    0.18900    0.20680    1.000
    H39      H        0.46410    0.28340    0.07560    1.000
    H40      H        0.42270    0.28170    0.15010    1.000
    H41      H        0.77620    0.26030    0.07200    1.000
    H42      H        0.69800    0.30630    0.01900    1.000
    H43      H        0.96160    0.66600    0.05110    1.000
    H44      H        0.04240    0.61860    0.10180    1.000
    H45      H        0.91800    0.50070    0.19450    1.000
    H46      H        0.90770    0.54430    0.23630    1.000
    H47      H        0.73610    0.61850    0.20940    1.000
    H48      H        0.77890    0.67640    0.12600    1.000
    H49      H        0.70470    0.19800    0.63260    1.000
    H50      H        0.85920    0.20680    0.60420    1.000
    H51      H        0.53970    0.07560    0.64100    1.000
    H52      H        0.57280    0.15010    0.56820    1.000
    H53      H        0.84820    0.07200    0.66770    1.000
    H54      H        0.71700    0.01900    0.67470    1.000
    H55      H        0.01270    0.05110    0.28290    1.000
    H56      H        0.14420    0.10180    0.27960    1.000
    H57      H        0.11250    0.19450    0.30480    1.000
    H58      H        0.14400    0.23630    0.21940    1.000
    H59      H        0.94550    0.20940    0.17210    1.000
    H60      H        0.90490    0.12600    0.19760    1.000
    H61      H        0.33730    0.63260    0.16940    1.000
    H62      H        0.46340    0.60420    0.18900    1.000
    H63      H        0.18070    0.64100    0.28340    1.000
    H64      H        0.14100    0.56820    0.28170    1.000
    H65      H        0.51590    0.66770    0.26030    1.000
    H66      H        0.39170    0.67470    0.30630    1.000
    H67      H        0.29560    0.28290    0.66600    1.000
    H68      H        0.42380    0.27960    0.61860    1.000
    H69      H        0.41730    0.30480    0.50070    1.000
    H70      H        0.36340    0.21940    0.54430    1.000
    H71      H        0.11760    0.17210    0.61850    1.000
    H72      H        0.10250    0.19760    0.67640    1.000
    Pb1      Pb       0.38581    0.45859    0.90048    1.000
    Pb2      Pb       0.78901    0.54496    0.91089    1.000
    Pb3      Pb       0.20111    0.61860    0.86402    1.000
    Pb4      Pb       0.28629    0.90048    0.64093    1.000
    Pb5      Pb       0.69990    0.91089    0.54415    1.000
    Pb6      Pb       0.06513    0.86402    0.51738    1.000
    Pb7      Pb       0.92722    0.64093    0.45859    1.000
    Pb8      Pb       0.24405    0.54415    0.54496    1.000
    Pb9      Pb       0.58251    0.51738    0.61860    1.000
    Pb10     Pb       0.61419    0.54141    0.09952    1.000
    Pb11     Pb       0.21099    0.45504    0.08911    1.000
    Pb12     Pb       0.79889    0.38140    0.13598    1.000
    Pb13     Pb       0.71371    0.09952    0.35907    1.000
    Pb14     Pb       0.30010    0.08911    0.45585    1.000
    Pb15     Pb       0.93487    0.13598    0.48262    1.000
    Pb16     Pb       0.07278    0.35907    0.54141    1.000
    Pb17     Pb       0.75595    0.45585    0.45504    1.000
    Pb18     Pb       0.41749    0.48262    0.38140    1.000
    C1       C        0.42700    0.79330    0.80130    1.000
    C2       C        0.50450    0.69850    0.89400    1.000
    C3       C        0.31390    0.73710    0.93440    1.000
    C4       C        0.37470    0.80220    0.94010    1.000
    C5       C        0.30160    0.85320    0.91340    1.000
    C6       C        0.47650    0.81000    0.95450    1.000
    C7       C        0.03860    0.38380    0.91500    1.000
    C8       C        0.13990    0.47500    0.78930    1.000
    C9       C        0.18960    0.35740    0.83460    1.000
    C10      C        0.07560    0.31330    0.82350    1.000
    C11      C        0.11360    0.33620    0.74440    1.000
    C12      C        0.11490    0.24080    0.85210    1.000
    C13      C        0.22830    0.80130    0.40540    1.000
    C14      C        0.39850    0.89400    0.40750    1.000
    C15      C        0.24830    0.93440    0.32850    1.000
    C16      C        0.31480    0.94010    0.25770    1.000
    C17      C        0.21500    0.91340    0.23340    1.000
    C18      C        0.43100    0.95450    0.23550    1.000
    C19      C        0.95360    0.91500    0.70120    1.000
    C20      C        0.92920    0.78930    0.73570    1.000
    C21      C        0.02420    0.83460    0.80800    1.000
    C22      C        0.89910    0.82350    0.86320    1.000
    C23      C        0.85800    0.74440    0.91940    1.000
    C24      C        0.96700    0.85210    0.90710    1.000
    C25      C        0.63370    0.40540    0.79330    1.000
    C26      C        0.80600    0.40750    0.69850    1.000
    C27      C        0.57680    0.32850    0.73710    1.000
    C28      C        0.57250    0.25770    0.80220    1.000
    C29      C        0.44840    0.23340    0.85320    1.000
    C30      C        0.66650    0.23550    0.81000    1.000
    C31      C        0.65480    0.70120    0.38380    1.000
    C32      C        0.66490    0.73570    0.47500    1.000
    C33      C        0.83220    0.80800    0.35740    1.000
    C34      C        0.76230    0.86320    0.31330    1.000
    C35      C        0.77740    0.91940    0.33620    1.000
    C36      C        0.87410    0.90710    0.24080    1.000
    C37      C        0.57300    0.20670    0.19870    1.000
    C38      C        0.49550    0.30150    0.10600    1.000
    C39      C        0.68610    0.26290    0.06560    1.000
    C40      C        0.62530    0.19780    0.05990    1.000
    C41      C        0.69840    0.14680    0.08660    1.000
    C42      C        0.52350    0.19000    0.04550    1.000
    C43      C        0.96140    0.61620    0.08500    1.000
    C44      C        0.86010    0.52500    0.21070    1.000
    C45      C        0.81040    0.64260    0.16540    1.000
    C46      C        0.92440    0.68670    0.17650    1.000
    C47      C        0.88640    0.66380    0.25560    1.000
    C48      C        0.88510    0.75920    0.14790    1.000
    C49      C        0.77170    0.19870    0.59460    1.000
    C50      C        0.60150    0.10600    0.59250    1.000
    C51      C        0.75170    0.06560    0.67150    1.000
    C52      C        0.68520    0.05990    0.74230    1.000
    C53      C        0.78500    0.08660    0.76660    1.000
    C54      C        0.56900    0.04550    0.76450    1.000
    C55      C        0.04640    0.08500    0.29880    1.000
    C56      C        0.07080    0.21070    0.26430    1.000
    C57      C        0.97580    0.16540    0.19200    1.000
    C58      C        0.10090    0.17650    0.13680    1.000
    C59      C        0.14200    0.25560    0.08060    1.000
    C60      C        0.03300    0.14790    0.09290    1.000
    C61      C        0.36630    0.59460    0.20670    1.000
    C62      C        0.19400    0.59250    0.30150    1.000
    C63      C        0.42320    0.67150    0.26290    1.000
    C64      C        0.42750    0.74230    0.19780    1.000
    C65      C        0.55160    0.76660    0.14680    1.000
    C66      C        0.33350    0.76450    0.19000    1.000
    C67      C        0.34520    0.29880    0.61620    1.000
    C68      C        0.33510    0.26430    0.52500    1.000
    C69      C        0.16780    0.19200    0.64260    1.000
    C70      C        0.23770    0.13680    0.68670    1.000
    C71      C        0.22260    0.08060    0.66380    1.000
    C72      C        0.12590    0.09290    0.75920    1.000
    N1       N        0.38870    0.72540    0.87410    1.000
    N2       N        0.15630    0.41470    0.85290    1.000
    N3       N        0.26280    0.87410    0.40050    1.000
    N4       N        0.00920    0.85290    0.73240    1.000
    N5       N        0.66330    0.40050    0.72540    1.000
    N6       N        0.74160    0.73240    0.41470    1.000
    N7       N        0.61130    0.27460    0.12590    1.000
    N8       N        0.84370    0.58530    0.14710    1.000
    N9       N        0.73720    0.12590    0.59950    1.000
    N10      N        0.99080    0.14710    0.26760    1.000
    N11      N        0.33670    0.59950    0.27460    1.000
    N12      N        0.25840    0.26760    0.58530    1.000
    O1       O        0.45430    0.57520    0.88560    1.000
    O2       O        0.58960    0.58060    0.97410    1.000
    O3       O        0.33440    0.56960    0.00120    1.000
    O4       O        0.41670    0.70880    0.73690    1.000
    O5       O        0.48530    0.84490    0.65700    1.000
    O6       O        0.64480    0.78210    0.72080    1.000
    O7       O        0.98800    0.50320    0.91890    1.000
    O8       O        0.17740    0.45900    0.96860    1.000
    O9       O        0.93200    0.38180    0.03810    1.000
    O10      O        0.25120    0.61300    0.67800    1.000
    O11      O        0.36550    0.51460    0.67800    1.000
    O12      O        0.38990    0.55590    0.77120    1.000
    O13      O        0.33990    0.88560    0.53920    1.000
    O14      O        0.56370    0.97410    0.44530    1.000
    O15      O        0.33560    0.00120    0.42920    1.000
    O16      O        0.15360    0.73690    0.55430    1.000
    O17      O        0.14230    0.65700    0.49810    1.000
    O18      O        0.36560    0.72080    0.49710    1.000
    O19      O        0.90690    0.91890    0.57790    1.000
    O20      O        0.14600    0.96860    0.57240    1.000
    O21      O        0.97010    0.03810    0.58010    1.000
    O22      O        0.92920    0.67800    0.70900    1.000
    O23      O        0.04350    0.67800    0.80740    1.000
    O24      O        0.16110    0.77120    0.67290    1.000
    O25      O        0.87910    0.53920    0.57520    1.000
    O26      O        0.00900    0.44530    0.58060    1.000
    O27      O        0.76480    0.42920    0.56960    1.000
    O28      O        0.70790    0.55430    0.70880    1.000
    O29      O        0.64040    0.49810    0.84490    1.000
    O30      O        0.86270    0.49710    0.78210    1.000
    O31      O        0.48480    0.57790    0.50320    1.000
    O32      O        0.71840    0.57240    0.45900    1.000
    O33      O        0.55020    0.58010    0.38180    1.000
    O34      O        0.63820    0.70900    0.61300    1.000
    O35      O        0.85090    0.80740    0.51460    1.000
    O36      O        0.83400    0.67290    0.55590    1.000
    O37      O        0.54570    0.42480    0.11440    1.000
    O38      O        0.41040    0.41940    0.02590    1.000
    O39      O        0.66560    0.43040    0.99880    1.000
    O40      O        0.58330    0.29120    0.26310    1.000
    O41      O        0.51470    0.15510    0.34300    1.000
    O42      O        0.35520    0.21790    0.27920    1.000
    O43      O        0.01200    0.49680    0.08110    1.000
    O44      O        0.82260    0.54100    0.03140    1.000
    O45      O        0.06800    0.61820    0.96190    1.000
    O46      O        0.74880    0.38700    0.32200    1.000
    O47      O        0.63450    0.48540    0.32200    1.000
    O48      O        0.61010    0.44410    0.22880    1.000
    O49      O        0.66010    0.11440    0.46080    1.000
    O50      O        0.43630    0.02590    0.55470    1.000
    O51      O        0.66440    0.99880    0.57080    1.000
    O52      O        0.84640    0.26310    0.44570    1.000
    O53      O        0.85770    0.34300    0.50190    1.000
    O54      O        0.63440    0.27920    0.50290    1.000
    O55      O        0.09310    0.08110    0.42210    1.000
    O56      O        0.85400    0.03140    0.42760    1.000
    O57      O        0.02990    0.96190    0.41990    1.000
    O58      O        0.07080    0.32200    0.29100    1.000
    O59      O        0.95650    0.32200    0.19260    1.000
    O60      O        0.83890    0.22880    0.32710    1.000
    O61      O        0.12090    0.46080    0.42480    1.000
    O62      O        0.99100    0.55470    0.41940    1.000
    O63      O        0.23520    0.57080    0.43040    1.000
    O64      O        0.29210    0.44570    0.29120    1.000
    O65      O        0.35960    0.50190    0.15510    1.000
    O66      O        0.13730    0.50290    0.21790    1.000
    O67      O        0.51520    0.42210    0.49680    1.000
    O68      O        0.28160    0.42760    0.54100    1.000
    O69      O        0.44980    0.41990    0.61820    1.000
    O70      O        0.36180    0.29100    0.38700    1.000
    O71      O        0.14910    0.19260    0.48540    1.000
    O72      O        0.16600    0.32710    0.44410    1.000
