# CIF file generated by openbabel 3.1.0, see https://openbabel.org
data_I
_chemical_name_common 'image0'
_cell_length_a 18.2451
_cell_length_b 18.2451
_cell_length_c 19.8056
_cell_angle_alpha 90
_cell_angle_beta 90
_cell_angle_gamma 120
_space_group_name_H-M_alt 'P 1'
_space_group_name_Hall 'P 1'
loop_
    _symmetry_equiv_pos_as_xyz
    x,y,z
loop_
    _atom_site_label
    _atom_site_type_symbol
    _atom_site_fract_x
    _atom_site_fract_y
    _atom_site_fract_z
    _atom_site_occupancy
    Gd1      Gd       0.58289    0.49211    0.55586    1.000
    O1       O        0.66990    0.42563    0.70292    1.000
    O2       O        0.68402    0.63569    0.51971    1.000
    C1       C        0.64590    0.46900    0.84612    1.000
    H1       H        0.64530    0.41530    0.84070    1.000
    C2       C        0.65310    0.51640    0.78105    1.000
    H2       H        0.62510    0.55030    0.78340    1.000
    C3       C        0.72840    0.54760    0.82804    1.000
    C4       C        0.64860    0.48000    0.71263    1.000
    C5       C        0.63360    0.64580    0.48267    1.000
    C6       C        0.59040    0.47060    0.90064    1.000
    C7       C        0.66290    0.73190    0.45210    1.000
    H3       H        0.71780    0.77580    0.46930    1.000
    C8       C        0.60800    0.76740    0.42450    1.000
    H4       H        0.63620    0.82920    0.42770    1.000
    C9       C        0.80100    0.53360    0.81160    1.000
    H5       H        0.82720    0.53050    0.85270    1.000
    H6       H        0.84180    0.57980    0.78460    1.000
    H7       H        0.78030    0.48170    0.78690    1.000
    C10      C        0.65310    0.73740    0.37540    1.000
    C11      C        0.75610    0.63060    0.86400    1.000
    H8       H        0.70760    0.63640    0.87310    1.000
    H9       H        0.79510    0.67660    0.83600    1.000
    H10      H        0.78320    0.63140    0.90580    1.000
    C12      C        0.60700    0.65770    0.33250    1.000
    H11      H        0.57980    0.66810    0.29520    1.000
    H12      H        0.56520    0.61230    0.35950    1.000
    H13      H        0.64690    0.64240    0.31570    1.000
    C13      C        0.72910    0.80940    0.34060    1.000
    H14      H        0.75930    0.78720    0.31620    1.000
    H15      H        0.76580    0.84920    0.37380    1.000
    H16      H        0.71040    0.83720    0.30980    1.000
    O3       O        0.62190    0.50951    0.66730    1.000
    O4       O        0.48177    0.77333    0.43828    1.000
    C14      C        0.51260    0.72610    0.42688    1.000
    O5       O        0.46269    0.64995    0.40903    1.000
    O6       O        0.57309    0.41989    0.95037    1.000
    O7       O        0.56461    0.52266    0.89495    1.000
    O8       O        0.56148    0.58321    0.46842    1.000
    C15      C        0.66060    0.73180    0.46160    1.000
    H17      H        0.70790    0.77340    0.48900    1.000
    C16      C        0.60430    0.76690    0.43620    1.000
    H18      H        0.62700    0.82540    0.45150    1.000
    C17      C        0.66700    0.76080    0.38920    1.000
    C18      C        0.63540    0.69260    0.33640    1.000
    H19      H        0.65240    0.65220    0.34790    1.000
    H20      H        0.65870    0.71730    0.29330    1.000
    H21      H        0.57470    0.66470    0.33430    1.000
    C19      C        0.74290    0.84280    0.36840    1.000
    H22      H        0.75900    0.88290    0.40460    1.000
    H23      H        0.72940    0.86450    0.32920    1.000
    H24      H        0.78900    0.83330    0.35820    1.000
    Gd2      Gd       0.50789    0.09078    0.55586    1.000
    O9       O        0.57437    0.24427    0.70292    1.000
    O10      O        0.36431    0.04833    0.51971    1.000
    C20      C        0.53100    0.17690    0.84612    1.000
    H25      H        0.58470    0.23000    0.84070    1.000
    C21      C        0.48360    0.13670    0.78105    1.000
    H26      H        0.44970    0.07480    0.78340    1.000
    C22      C        0.45240    0.18080    0.82804    1.000
    C23      C        0.52000    0.16860    0.71263    1.000
    C24      C        0.35420    0.98780    0.48267    1.000
    C25      C        0.52940    0.11980    0.90064    1.000
    C26      C        0.26810    0.93100    0.45210    1.000
    H27      H        0.22420    0.94200    0.46930    1.000
    C27      C        0.23260    0.84060    0.42450    1.000
    H28      H        0.17080    0.80700    0.42770    1.000
    C28      C        0.46640    0.26740    0.81160    1.000
    H29      H        0.46950    0.29670    0.85270    1.000
    H30      H        0.42020    0.26200    0.78460    1.000
    H31      H        0.51830    0.29860    0.78690    1.000
    C29      C        0.26260    0.91570    0.37540    1.000
    C30      C        0.36940    0.12550    0.86400    1.000
    H32      H        0.36360    0.07120    0.87310    1.000
    H33      H        0.32340    0.11850    0.83600    1.000
    H34      H        0.36860    0.15180    0.90580    1.000
    C31      C        0.34230    0.94930    0.33250    1.000
    H35      H        0.33190    0.91170    0.29520    1.000
    H36      H        0.38770    0.95290    0.35950    1.000
    H37      H        0.35760    0.00450    0.31570    1.000
    C32      C        0.19060    0.91970    0.34060    1.000
    H38      H        0.21280    0.97210    0.31620    1.000
    H39      H        0.15080    0.91660    0.37380    1.000
    H40      H        0.16280    0.87320    0.30980    1.000
    O11      O        0.49049    0.11239    0.66730    1.000
    O12      O        0.22667    0.70844    0.43828    1.000
    C33      C        0.27390    0.78650    0.42688    1.000
    O13      O        0.35005    0.81274    0.40903    1.000
    O14      O        0.58011    0.15320    0.95037    1.000
    O15      O        0.47734    0.04195    0.89495    1.000
    O16      O        0.41679    0.97827    0.46842    1.000
    C34      C        0.26820    0.92880    0.46160    1.000
    H41      H        0.22660    0.93450    0.48900    1.000
    C35      C        0.23310    0.83740    0.43620    1.000
    H42      H        0.17460    0.80160    0.45150    1.000
    C36      C        0.23920    0.90620    0.38920    1.000
    C37      C        0.30740    0.94280    0.33640    1.000
    H43      H        0.34780    0.00020    0.34790    1.000
    H44      H        0.28270    0.94140    0.29330    1.000
    H45      H        0.33530    0.91000    0.33430    1.000
    C38      C        0.15720    0.90010    0.36840    1.000
    H46      H        0.11710    0.87610    0.40460    1.000
    H47      H        0.13550    0.86490    0.32920    1.000
    H48      H        0.16670    0.95570    0.35820    1.000
    Gd3      Gd       0.90922    0.41711    0.55586    1.000
    O17      O        0.75573    0.33010    0.70292    1.000
    O18      O        0.95167    0.31598    0.51971    1.000
    C39      C        0.82310    0.35410    0.84612    1.000
    H49      H        0.77000    0.35470    0.84070    1.000
    C40      C        0.86330    0.34690    0.78105    1.000
    H50      H        0.92520    0.37490    0.78340    1.000
    C41      C        0.81920    0.27160    0.82804    1.000
    C42      C        0.83140    0.35140    0.71263    1.000
    C43      C        0.01220    0.36640    0.48267    1.000
    C44      C        0.88020    0.40960    0.90064    1.000
    C45      C        0.06900    0.33710    0.45210    1.000
    H51      H        0.05800    0.28220    0.46930    1.000
    C46      C        0.15940    0.39200    0.42450    1.000
    H52      H        0.19300    0.36380    0.42770    1.000
    C47      C        0.73260    0.19900    0.81160    1.000
    H53      H        0.70330    0.17280    0.85270    1.000
    H54      H        0.73800    0.15820    0.78460    1.000
    H55      H        0.70140    0.21970    0.78690    1.000
    C48      C        0.08430    0.34690    0.37540    1.000
    C49      C        0.87450    0.24390    0.86400    1.000
    H56      H        0.92880    0.29240    0.87310    1.000
    H57      H        0.88150    0.20490    0.83600    1.000
    H58      H        0.84820    0.21680    0.90580    1.000
    C50      C        0.05070    0.39300    0.33250    1.000
    H59      H        0.08830    0.42020    0.29520    1.000
    H60      H        0.04710    0.43480    0.35950    1.000
    H61      H        0.99550    0.35310    0.31570    1.000
    C51      C        0.08030    0.27090    0.34060    1.000
    H62      H        0.02790    0.24070    0.31620    1.000
    H63      H        0.08340    0.23420    0.37380    1.000
    H64      H        0.12680    0.28960    0.30980    1.000
    O19      O        0.88761    0.37810    0.66730    1.000
    O20      O        0.29156    0.51823    0.43828    1.000
    C52      C        0.21350    0.48740    0.42688    1.000
    O21      O        0.18726    0.53731    0.40903    1.000
    O22      O        0.84680    0.42691    0.95037    1.000
    O23      O        0.95805    0.43539    0.89495    1.000
    O24      O        0.02173    0.43852    0.46842    1.000
    C53      C        0.07120    0.33940    0.46160    1.000
    H65      H        0.06550    0.29210    0.48900    1.000
    C54      C        0.16260    0.39570    0.43620    1.000
    H66      H        0.19840    0.37300    0.45150    1.000
    C55      C        0.09380    0.33300    0.38920    1.000
    C56      C        0.05720    0.36460    0.33640    1.000
    H67      H        0.99980    0.34760    0.34790    1.000
    H68      H        0.05860    0.34130    0.29330    1.000
    H69      H        0.09000    0.42530    0.33430    1.000
    C57      C        0.09990    0.25710    0.36840    1.000
    H70      H        0.12390    0.24100    0.40460    1.000
    H71      H        0.13510    0.27060    0.32920    1.000
    H72      H        0.04430    0.21100    0.35820    1.000
    Gd4      Gd       0.49211    0.58289    0.94414    1.000
    O25      O        0.42563    0.66990    0.79708    1.000
    O26      O        0.63569    0.68402    0.98029    1.000
    C58      C        0.46900    0.64590    0.65388    1.000
    H73      H        0.41530    0.64530    0.65930    1.000
    C59      C        0.51640    0.65310    0.71895    1.000
    H74      H        0.55030    0.62510    0.71660    1.000
    C60      C        0.54760    0.72840    0.67196    1.000
    C61      C        0.48000    0.64860    0.78737    1.000
    C62      C        0.64580    0.63360    0.01733    1.000
    C63      C        0.47060    0.59040    0.59936    1.000
    C64      C        0.73190    0.66290    0.04790    1.000
    H75      H        0.77580    0.71780    0.03070    1.000
    C65      C        0.76740    0.60800    0.07550    1.000
    H76      H        0.82920    0.63620    0.07230    1.000
    C66      C        0.53360    0.80100    0.68840    1.000
    H77      H        0.53050    0.82720    0.64730    1.000
    H78      H        0.57980    0.84180    0.71540    1.000
    H79      H        0.48170    0.78030    0.71310    1.000
    C67      C        0.73740    0.65310    0.12460    1.000
    C68      C        0.63060    0.75610    0.63600    1.000
    H80      H        0.63640    0.70760    0.62690    1.000
    H81      H        0.67660    0.79510    0.66400    1.000
    H82      H        0.63140    0.78320    0.59420    1.000
    C69      C        0.65770    0.60700    0.16750    1.000
    H83      H        0.66810    0.57980    0.20480    1.000
    H84      H        0.61230    0.56520    0.14050    1.000
    H85      H        0.64240    0.64690    0.18430    1.000
    C70      C        0.80940    0.72910    0.15940    1.000
    H86      H        0.78720    0.75930    0.18380    1.000
    H87      H        0.84920    0.76580    0.12620    1.000
    H88      H        0.83720    0.71040    0.19020    1.000
    O27      O        0.50951    0.62190    0.83270    1.000
    O28      O        0.77333    0.48177    0.06172    1.000
    C71      C        0.72610    0.51260    0.07312    1.000
    O29      O        0.64995    0.46269    0.09097    1.000
    O30      O        0.41989    0.57309    0.54963    1.000
    O31      O        0.52266    0.56461    0.60505    1.000
    O32      O        0.58321    0.56148    0.03158    1.000
    C72      C        0.73180    0.66060    0.03840    1.000
    H89      H        0.77340    0.70790    0.01100    1.000
    C73      C        0.76690    0.60430    0.06380    1.000
    H90      H        0.82540    0.62700    0.04850    1.000
    C74      C        0.76080    0.66700    0.11080    1.000
    C75      C        0.69260    0.63540    0.16360    1.000
    H91      H        0.65220    0.65240    0.15210    1.000
    H92      H        0.71730    0.65870    0.20670    1.000
    H93      H        0.66470    0.57470    0.16570    1.000
    C76      C        0.84280    0.74290    0.13160    1.000
    H94      H        0.88290    0.75900    0.09540    1.000
    H95      H        0.86450    0.72940    0.17080    1.000
    H96      H        0.83330    0.78900    0.14180    1.000
    Gd5      Gd       0.09078    0.50789    0.94414    1.000
    O33      O        0.24427    0.57437    0.79708    1.000
    O34      O        0.04833    0.36431    0.98029    1.000
    C77      C        0.17690    0.53100    0.65388    1.000
    H97      H        0.23000    0.58470    0.65930    1.000
    C78      C        0.13670    0.48360    0.71895    1.000
    H98      H        0.07480    0.44970    0.71660    1.000
    C79      C        0.18080    0.45240    0.67196    1.000
    C80      C        0.16860    0.52000    0.78737    1.000
    C81      C        0.98780    0.35420    0.01733    1.000
    C82      C        0.11980    0.52940    0.59936    1.000
    C83      C        0.93100    0.26810    0.04790    1.000
    H99      H        0.94200    0.22420    0.03070    1.000
    C84      C        0.84060    0.23260    0.07550    1.000
    H100     H        0.80700    0.17080    0.07230    1.000
    C85      C        0.26740    0.46640    0.68840    1.000
    H101     H        0.29670    0.46950    0.64730    1.000
    H102     H        0.26200    0.42020    0.71540    1.000
    H103     H        0.29860    0.51830    0.71310    1.000
    C86      C        0.91570    0.26260    0.12460    1.000
    C87      C        0.12550    0.36940    0.63600    1.000
    H104     H        0.07120    0.36360    0.62690    1.000
    H105     H        0.11850    0.32340    0.66400    1.000
    H106     H        0.15180    0.36860    0.59420    1.000
    C88      C        0.94930    0.34230    0.16750    1.000
    H107     H        0.91170    0.33190    0.20480    1.000
    H108     H        0.95290    0.38770    0.14050    1.000
    H109     H        0.00450    0.35760    0.18430    1.000
    C89      C        0.91970    0.19060    0.15940    1.000
    H110     H        0.97210    0.21280    0.18380    1.000
    H111     H        0.91660    0.15080    0.12620    1.000
    H112     H        0.87320    0.16280    0.19020    1.000
    O35      O        0.11239    0.49049    0.83270    1.000
    O36      O        0.70844    0.22667    0.06172    1.000
    C90      C        0.78650    0.27390    0.07312    1.000
    O37      O        0.81274    0.35005    0.09097    1.000
    O38      O        0.15320    0.58011    0.54963    1.000
    O39      O        0.04195    0.47734    0.60505    1.000
    O40      O        0.97827    0.41679    0.03158    1.000
    C91      C        0.92880    0.26820    0.03840    1.000
    H113     H        0.93450    0.22660    0.01100    1.000
    C92      C        0.83740    0.23310    0.06380    1.000
    H114     H        0.80160    0.17460    0.04850    1.000
    C93      C        0.90620    0.23920    0.11080    1.000
    C94      C        0.94280    0.30740    0.16360    1.000
    H115     H        0.00020    0.34780    0.15210    1.000
    H116     H        0.94140    0.28270    0.20670    1.000
    H117     H        0.91000    0.33530    0.16570    1.000
    C95      C        0.90010    0.15720    0.13160    1.000
    H118     H        0.87610    0.11710    0.09540    1.000
    H119     H        0.86490    0.13550    0.17080    1.000
    H120     H        0.95570    0.16670    0.14180    1.000
    Gd6      Gd       0.41711    0.90922    0.94414    1.000
    O41      O        0.33010    0.75573    0.79708    1.000
    O42      O        0.31598    0.95167    0.98029    1.000
    C96      C        0.35410    0.82310    0.65388    1.000
    H121     H        0.35470    0.77000    0.65930    1.000
    C97      C        0.34690    0.86330    0.71895    1.000
    H122     H        0.37490    0.92520    0.71660    1.000
    C98      C        0.27160    0.81920    0.67196    1.000
    C99      C        0.35140    0.83140    0.78737    1.000
    C100     C        0.36640    0.01220    0.01733    1.000
    C101     C        0.40960    0.88020    0.59936    1.000
    C102     C        0.33710    0.06900    0.04790    1.000
    H123     H        0.28220    0.05800    0.03070    1.000
    C103     C        0.39200    0.15940    0.07550    1.000
    H124     H        0.36380    0.19300    0.07230    1.000
    C104     C        0.19900    0.73260    0.68840    1.000
    H125     H        0.17280    0.70330    0.64730    1.000
    H126     H        0.15820    0.73800    0.71540    1.000
    H127     H        0.21970    0.70140    0.71310    1.000
    C105     C        0.34690    0.08430    0.12460    1.000
    C106     C        0.24390    0.87450    0.63600    1.000
    H128     H        0.29240    0.92880    0.62690    1.000
    H129     H        0.20490    0.88150    0.66400    1.000
    H130     H        0.21680    0.84820    0.59420    1.000
    C107     C        0.39300    0.05070    0.16750    1.000
    H131     H        0.42020    0.08830    0.20480    1.000
    H132     H        0.43480    0.04710    0.14050    1.000
    H133     H        0.35310    0.99550    0.18430    1.000
    C108     C        0.27090    0.08030    0.15940    1.000
    H134     H        0.24070    0.02790    0.18380    1.000
    H135     H        0.23420    0.08340    0.12620    1.000
    H136     H        0.28960    0.12680    0.19020    1.000
    O43      O        0.37810    0.88761    0.83270    1.000
    O44      O        0.51823    0.29156    0.06172    1.000
    C109     C        0.48740    0.21350    0.07312    1.000
    O45      O        0.53731    0.18726    0.09097    1.000
    O46      O        0.42691    0.84680    0.54963    1.000
    O47      O        0.43539    0.95805    0.60505    1.000
    O48      O        0.43852    0.02173    0.03158    1.000
    C110     C        0.33940    0.07120    0.03840    1.000
    H137     H        0.29210    0.06550    0.01100    1.000
    C111     C        0.39570    0.16260    0.06380    1.000
    H138     H        0.37300    0.19840    0.04850    1.000
    C112     C        0.33300    0.09380    0.11080    1.000
    C113     C        0.36460    0.05720    0.16360    1.000
    H139     H        0.34760    0.99980    0.15210    1.000
    H140     H        0.34130    0.05860    0.20670    1.000
    H141     H        0.42530    0.09000    0.16570    1.000
    C114     C        0.25710    0.09990    0.13160    1.000
    H142     H        0.24100    0.12390    0.09540    1.000
    H143     H        0.27060    0.13510    0.17080    1.000
    H144     H        0.21100    0.04430    0.14180    1.000
    Gd7      Gd       0.41711    0.50789    0.44414    1.000
    O49      O        0.33010    0.57437    0.29708    1.000
    O50      O        0.31598    0.36431    0.48029    1.000
    C115     C        0.35410    0.53100    0.15388    1.000
    H145     H        0.35470    0.58470    0.15930    1.000
    C116     C        0.34690    0.48360    0.21895    1.000
    H146     H        0.37490    0.44970    0.21660    1.000
    C117     C        0.27160    0.45240    0.17196    1.000
    C118     C        0.35140    0.52000    0.28737    1.000
    C119     C        0.36640    0.35420    0.51733    1.000
    C120     C        0.40960    0.52940    0.09936    1.000
    C121     C        0.33710    0.26810    0.54790    1.000
    H147     H        0.28220    0.22420    0.53070    1.000
    C122     C        0.39200    0.23260    0.57550    1.000
    H148     H        0.36380    0.17080    0.57230    1.000
    C123     C        0.19900    0.46640    0.18840    1.000
    H149     H        0.17280    0.46950    0.14730    1.000
    H150     H        0.15820    0.42020    0.21540    1.000
    H151     H        0.21970    0.51830    0.21310    1.000
    C124     C        0.34690    0.26260    0.62460    1.000
    C125     C        0.24390    0.36940    0.13600    1.000
    H152     H        0.29240    0.36360    0.12690    1.000
    H153     H        0.20490    0.32340    0.16400    1.000
    H154     H        0.21680    0.36860    0.09420    1.000
    C126     C        0.39300    0.34230    0.66750    1.000
    H155     H        0.42020    0.33190    0.70480    1.000
    H156     H        0.43480    0.38770    0.64050    1.000
    H157     H        0.35310    0.35760    0.68430    1.000
    C127     C        0.27090    0.19060    0.65940    1.000
    H158     H        0.24070    0.21280    0.68380    1.000
    H159     H        0.23420    0.15080    0.62620    1.000
    H160     H        0.28960    0.16280    0.69020    1.000
    O51      O        0.37810    0.49049    0.33270    1.000
    O52      O        0.51823    0.22667    0.56172    1.000
    C128     C        0.48740    0.27390    0.57312    1.000
    O53      O        0.53731    0.35005    0.59097    1.000
    O54      O        0.42691    0.58011    0.04963    1.000
    O55      O        0.43539    0.47734    0.10505    1.000
    O56      O        0.43852    0.41679    0.53158    1.000
    C129     C        0.33940    0.26820    0.53840    1.000
    H161     H        0.29210    0.22660    0.51100    1.000
    C130     C        0.39570    0.23310    0.56380    1.000
    H162     H        0.37300    0.17460    0.54850    1.000
    C131     C        0.33300    0.23920    0.61080    1.000
    C132     C        0.36460    0.30740    0.66360    1.000
    H163     H        0.34760    0.34780    0.65210    1.000
    H164     H        0.34130    0.28270    0.70670    1.000
    H165     H        0.42530    0.33530    0.66570    1.000
    C133     C        0.25710    0.15720    0.63160    1.000
    H166     H        0.24100    0.11710    0.59540    1.000
    H167     H        0.27060    0.13550    0.67080    1.000
    H168     H        0.21100    0.16670    0.64180    1.000
    Gd8      Gd       0.49211    0.90922    0.44414    1.000
    O57      O        0.42563    0.75573    0.29708    1.000
    O58      O        0.63569    0.95167    0.48029    1.000
    C134     C        0.46900    0.82310    0.15388    1.000
    H169     H        0.41530    0.77000    0.15930    1.000
    C135     C        0.51640    0.86330    0.21895    1.000
    H170     H        0.55030    0.92520    0.21660    1.000
    C136     C        0.54760    0.81920    0.17196    1.000
    C137     C        0.48000    0.83140    0.28737    1.000
    C138     C        0.64580    0.01220    0.51733    1.000
    C139     C        0.47060    0.88020    0.09936    1.000
    C140     C        0.73190    0.06900    0.54790    1.000
    H171     H        0.77580    0.05800    0.53070    1.000
    C141     C        0.76740    0.15940    0.57550    1.000
    H172     H        0.82920    0.19300    0.57230    1.000
    C142     C        0.53360    0.73260    0.18840    1.000
    H173     H        0.53050    0.70330    0.14730    1.000
    H174     H        0.57980    0.73800    0.21540    1.000
    H175     H        0.48170    0.70140    0.21310    1.000
    C143     C        0.73740    0.08430    0.62460    1.000
    C144     C        0.63060    0.87450    0.13600    1.000
    H176     H        0.63640    0.92880    0.12690    1.000
    H177     H        0.67660    0.88150    0.16400    1.000
    H178     H        0.63140    0.84820    0.09420    1.000
    C145     C        0.65770    0.05070    0.66750    1.000
    H179     H        0.66810    0.08830    0.70480    1.000
    H180     H        0.61230    0.04710    0.64050    1.000
    H181     H        0.64240    0.99550    0.68430    1.000
    C146     C        0.80940    0.08030    0.65940    1.000
    H182     H        0.78720    0.02790    0.68380    1.000
    H183     H        0.84920    0.08340    0.62620    1.000
    H184     H        0.83720    0.12680    0.69020    1.000
    O59      O        0.50951    0.88761    0.33270    1.000
    O60      O        0.77333    0.29156    0.56172    1.000
    C147     C        0.72610    0.21350    0.57312    1.000
    O61      O        0.64995    0.18726    0.59097    1.000
    O62      O        0.41989    0.84680    0.04963    1.000
    O63      O        0.52266    0.95805    0.10505    1.000
    O64      O        0.58321    0.02173    0.53158    1.000
    C148     C        0.73180    0.07120    0.53840    1.000
    H185     H        0.77340    0.06550    0.51100    1.000
    C149     C        0.76690    0.16260    0.56380    1.000
    H186     H        0.82540    0.19840    0.54850    1.000
    C150     C        0.76080    0.09380    0.61080    1.000
    C151     C        0.69260    0.05720    0.66360    1.000
    H187     H        0.65220    0.99980    0.65210    1.000
    H188     H        0.71730    0.05860    0.70670    1.000
    H189     H        0.66470    0.09000    0.66570    1.000
    C152     C        0.84280    0.09990    0.63160    1.000
    H190     H        0.88290    0.12390    0.59540    1.000
    H191     H        0.86450    0.13510    0.67080    1.000
    H192     H        0.83330    0.04430    0.64180    1.000
    Gd9      Gd       0.09078    0.58289    0.44414    1.000
    O65      O        0.24427    0.66990    0.29708    1.000
    O66      O        0.04833    0.68402    0.48029    1.000
    C153     C        0.17690    0.64590    0.15388    1.000
    H193     H        0.23000    0.64530    0.15930    1.000
    C154     C        0.13670    0.65310    0.21895    1.000
    H194     H        0.07480    0.62510    0.21660    1.000
    C155     C        0.18080    0.72840    0.17196    1.000
    C156     C        0.16860    0.64860    0.28737    1.000
    C157     C        0.98780    0.63360    0.51733    1.000
    C158     C        0.11980    0.59040    0.09936    1.000
    C159     C        0.93100    0.66290    0.54790    1.000
    H195     H        0.94200    0.71780    0.53070    1.000
    C160     C        0.84060    0.60800    0.57550    1.000
    H196     H        0.80700    0.63620    0.57230    1.000
    C161     C        0.26740    0.80100    0.18840    1.000
    H197     H        0.29670    0.82720    0.14730    1.000
    H198     H        0.26200    0.84180    0.21540    1.000
    H199     H        0.29860    0.78030    0.21310    1.000
    C162     C        0.91570    0.65310    0.62460    1.000
    C163     C        0.12550    0.75610    0.13600    1.000
    H200     H        0.07120    0.70760    0.12690    1.000
    H201     H        0.11850    0.79510    0.16400    1.000
    H202     H        0.15180    0.78320    0.09420    1.000
    C164     C        0.94930    0.60700    0.66750    1.000
    H203     H        0.91170    0.57980    0.70480    1.000
    H204     H        0.95290    0.56520    0.64050    1.000
    H205     H        0.00450    0.64690    0.68430    1.000
    C165     C        0.91970    0.72910    0.65940    1.000
    H206     H        0.97210    0.75930    0.68380    1.000
    H207     H        0.91660    0.76580    0.62620    1.000
    H208     H        0.87320    0.71040    0.69020    1.000
    O67      O        0.11239    0.62190    0.33270    1.000
    O68      O        0.70844    0.48177    0.56172    1.000
    C166     C        0.78650    0.51260    0.57312    1.000
    O69      O        0.81274    0.46269    0.59097    1.000
    O70      O        0.15320    0.57309    0.04963    1.000
    O71      O        0.04195    0.56461    0.10505    1.000
    O72      O        0.97827    0.56148    0.53158    1.000
    C167     C        0.92880    0.66060    0.53840    1.000
    H209     H        0.93450    0.70790    0.51100    1.000
    C168     C        0.83740    0.60430    0.56380    1.000
    H210     H        0.80160    0.62700    0.54850    1.000
    C169     C        0.90620    0.66700    0.61080    1.000
    C170     C        0.94280    0.63540    0.66360    1.000
    H211     H        0.00020    0.65240    0.65210    1.000
    H212     H        0.94140    0.65870    0.70670    1.000
    H213     H        0.91000    0.57470    0.66570    1.000
    C171     C        0.90010    0.74290    0.63160    1.000
    H214     H        0.87610    0.75900    0.59540    1.000
    H215     H        0.86490    0.72940    0.67080    1.000
    H216     H        0.95570    0.78900    0.64180    1.000
    Gd10     Gd       0.50789    0.41711    0.05586    1.000
    O73      O        0.57437    0.33010    0.20292    1.000
    O74      O        0.36431    0.31598    0.01971    1.000
    C172     C        0.53100    0.35410    0.34612    1.000
    H217     H        0.58470    0.35470    0.34070    1.000
    C173     C        0.48360    0.34690    0.28105    1.000
    H218     H        0.44970    0.37490    0.28340    1.000
    C174     C        0.45240    0.27160    0.32804    1.000
    C175     C        0.52000    0.35140    0.21263    1.000
    C176     C        0.35420    0.36640    0.98267    1.000
    C177     C        0.52940    0.40960    0.40064    1.000
    C178     C        0.26810    0.33710    0.95210    1.000
    H219     H        0.22420    0.28220    0.96930    1.000
    C179     C        0.23260    0.39200    0.92450    1.000
    H220     H        0.17080    0.36380    0.92770    1.000
    C180     C        0.46640    0.19900    0.31160    1.000
    H221     H        0.46950    0.17280    0.35270    1.000
    H222     H        0.42020    0.15820    0.28460    1.000
    H223     H        0.51830    0.21970    0.28690    1.000
    C181     C        0.26260    0.34690    0.87540    1.000
    C182     C        0.36940    0.24390    0.36400    1.000
    H224     H        0.36360    0.29240    0.37310    1.000
    H225     H        0.32340    0.20490    0.33600    1.000
    H226     H        0.36860    0.21680    0.40580    1.000
    C183     C        0.34230    0.39300    0.83250    1.000
    H227     H        0.33190    0.42020    0.79520    1.000
    H228     H        0.38770    0.43480    0.85950    1.000
    H229     H        0.35760    0.35310    0.81570    1.000
    C184     C        0.19060    0.27090    0.84060    1.000
    H230     H        0.21280    0.24070    0.81620    1.000
    H231     H        0.15080    0.23420    0.87380    1.000
    H232     H        0.16280    0.28960    0.80980    1.000
    O75      O        0.49049    0.37810    0.16730    1.000
    O76      O        0.22667    0.51823    0.93828    1.000
    C185     C        0.27390    0.48740    0.92688    1.000
    O77      O        0.35005    0.53731    0.90903    1.000
    O78      O        0.58011    0.42691    0.45037    1.000
    O79      O        0.47734    0.43539    0.39495    1.000
    O80      O        0.41679    0.43852    0.96842    1.000
    C186     C        0.26820    0.33940    0.96160    1.000
    H233     H        0.22660    0.29210    0.98900    1.000
    C187     C        0.23310    0.39570    0.93620    1.000
    H234     H        0.17460    0.37300    0.95150    1.000
    C188     C        0.23920    0.33300    0.88920    1.000
    C189     C        0.30740    0.36460    0.83640    1.000
    H235     H        0.34780    0.34760    0.84790    1.000
    H236     H        0.28270    0.34130    0.79330    1.000
    H237     H        0.33530    0.42530    0.83430    1.000
    C190     C        0.15720    0.25710    0.86840    1.000
    H238     H        0.11710    0.24100    0.90460    1.000
    H239     H        0.13550    0.27060    0.82920    1.000
    H240     H        0.16670    0.21100    0.85820    1.000
    Gd11     Gd       0.90922    0.49211    0.05586    1.000
    O81      O        0.75573    0.42563    0.20292    1.000
    O82      O        0.95167    0.63569    0.01971    1.000
    C191     C        0.82310    0.46900    0.34612    1.000
    H241     H        0.77000    0.41530    0.34070    1.000
    C192     C        0.86330    0.51640    0.28105    1.000
    H242     H        0.92520    0.55030    0.28340    1.000
    C193     C        0.81920    0.54760    0.32804    1.000
    C194     C        0.83140    0.48000    0.21263    1.000
    C195     C        0.01220    0.64580    0.98267    1.000
    C196     C        0.88020    0.47060    0.40064    1.000
    C197     C        0.06900    0.73190    0.95210    1.000
    H243     H        0.05800    0.77580    0.96930    1.000
    C198     C        0.15940    0.76740    0.92450    1.000
    H244     H        0.19300    0.82920    0.92770    1.000
    C199     C        0.73260    0.53360    0.31160    1.000
    H245     H        0.70330    0.53050    0.35270    1.000
    H246     H        0.73800    0.57980    0.28460    1.000
    H247     H        0.70140    0.48170    0.28690    1.000
    C200     C        0.08430    0.73740    0.87540    1.000
    C201     C        0.87450    0.63060    0.36400    1.000
    H248     H        0.92880    0.63640    0.37310    1.000
    H249     H        0.88150    0.67660    0.33600    1.000
    H250     H        0.84820    0.63140    0.40580    1.000
    C202     C        0.05070    0.65770    0.83250    1.000
    H251     H        0.08830    0.66810    0.79520    1.000
    H252     H        0.04710    0.61230    0.85950    1.000
    H253     H        0.99550    0.64240    0.81570    1.000
    C203     C        0.08030    0.80940    0.84060    1.000
    H254     H        0.02790    0.78720    0.81620    1.000
    H255     H        0.08340    0.84920    0.87380    1.000
    H256     H        0.12680    0.83720    0.80980    1.000
    O83      O        0.88761    0.50951    0.16730    1.000
    O84      O        0.29156    0.77333    0.93828    1.000
    C204     C        0.21350    0.72610    0.92688    1.000
    O85      O        0.18726    0.64995    0.90903    1.000
    O86      O        0.84680    0.41989    0.45037    1.000
    O87      O        0.95805    0.52266    0.39495    1.000
    O88      O        0.02173    0.58321    0.96842    1.000
    C205     C        0.07120    0.73180    0.96160    1.000
    H257     H        0.06550    0.77340    0.98900    1.000
    C206     C        0.16260    0.76690    0.93620    1.000
    H258     H        0.19840    0.82540    0.95150    1.000
    C207     C        0.09380    0.76080    0.88920    1.000
    C208     C        0.05720    0.69260    0.83640    1.000
    H259     H        0.99980    0.65220    0.84790    1.000
    H260     H        0.05860    0.71730    0.79330    1.000
    H261     H        0.09000    0.66470    0.83430    1.000
    C209     C        0.09990    0.84280    0.86840    1.000
    H262     H        0.12390    0.88290    0.90460    1.000
    H263     H        0.13510    0.86450    0.82920    1.000
    H264     H        0.04430    0.83330    0.85820    1.000
    Gd12     Gd       0.58289    0.09078    0.05586    1.000
    O89      O        0.66990    0.24427    0.20292    1.000
    O90      O        0.68402    0.04833    0.01971    1.000
    C210     C        0.64590    0.17690    0.34612    1.000
    H265     H        0.64530    0.23000    0.34070    1.000
    C211     C        0.65310    0.13670    0.28105    1.000
    H266     H        0.62510    0.07480    0.28340    1.000
    C212     C        0.72840    0.18080    0.32804    1.000
    C213     C        0.64860    0.16860    0.21263    1.000
    C214     C        0.63360    0.98780    0.98267    1.000
    C215     C        0.59040    0.11980    0.40064    1.000
    C216     C        0.66290    0.93100    0.95210    1.000
    H267     H        0.71780    0.94200    0.96930    1.000
    C217     C        0.60800    0.84060    0.92450    1.000
    H268     H        0.63620    0.80700    0.92770    1.000
    C218     C        0.80100    0.26740    0.31160    1.000
    H269     H        0.82720    0.29670    0.35270    1.000
    H270     H        0.84180    0.26200    0.28460    1.000
    H271     H        0.78030    0.29860    0.28690    1.000
    C219     C        0.65310    0.91570    0.87540    1.000
    C220     C        0.75610    0.12550    0.36400    1.000
    H272     H        0.70760    0.07120    0.37310    1.000
    H273     H        0.79510    0.11850    0.33600    1.000
    H274     H        0.78320    0.15180    0.40580    1.000
    C221     C        0.60700    0.94930    0.83250    1.000
    H275     H        0.57980    0.91170    0.79520    1.000
    H276     H        0.56520    0.95290    0.85950    1.000
    H277     H        0.64690    0.00450    0.81570    1.000
    C222     C        0.72910    0.91970    0.84060    1.000
    H278     H        0.75930    0.97210    0.81620    1.000
    H279     H        0.76580    0.91660    0.87380    1.000
    H280     H        0.71040    0.87320    0.80980    1.000
    O91      O        0.62190    0.11239    0.16730    1.000
    O92      O        0.48177    0.70844    0.93828    1.000
    C223     C        0.51260    0.78650    0.92688    1.000
    O93      O        0.46269    0.81274    0.90903    1.000
    O94      O        0.57309    0.15320    0.45037    1.000
    O95      O        0.56461    0.04195    0.39495    1.000
    O96      O        0.56148    0.97827    0.96842    1.000
    C224     C        0.66060    0.92880    0.96160    1.000
    H281     H        0.70790    0.93450    0.98900    1.000
    C225     C        0.60430    0.83740    0.93620    1.000
    H282     H        0.62700    0.80160    0.95150    1.000
    C226     C        0.66700    0.90620    0.88920    1.000
    C227     C        0.63540    0.94280    0.83640    1.000
    H283     H        0.65240    0.00020    0.84790    1.000
    H284     H        0.65870    0.94140    0.79330    1.000
    H285     H        0.57470    0.91000    0.83430    1.000
    C228     C        0.74290    0.90010    0.86840    1.000
    H286     H        0.75900    0.87610    0.90460    1.000
    H287     H        0.72940    0.86490    0.82920    1.000
    H288     H        0.78900    0.95570    0.85820    1.000
    Gd13     Gd       0.66667    0.33333    0.61818    1.000
    Gd14     Gd       0.33333    0.66667    0.88182    1.000
    Gd15     Gd       0.33333    0.66667    0.38182    1.000
    Gd16     Gd       0.66667    0.33333    0.11818    1.000
