# CIF file generated by openbabel 3.1.0, see https://openbabel.org
data_I
_chemical_name_common 'image0'
_cell_length_a 6.737
_cell_length_b 7.122
_cell_length_c 7.175
_cell_angle_alpha 90
_cell_angle_beta 90
_cell_angle_gamma 90
_space_group_name_H-M_alt 'P 1'
_space_group_name_Hall 'P 1'
loop_
    _symmetry_equiv_pos_as_xyz
    x,y,z
loop_
    _atom_site_label
    _atom_site_type_symbol
    _atom_site_fract_x
    _atom_site_fract_y
    _atom_site_fract_z
    _atom_site_occupancy
    Pt1      Pt       0.50000    0.50000    0.50000    1.000
    Fe1      Fe       0.50000    0.00000    0.00000    1.000
    N1       N        0.50000    0.19130    0.81010    1.000
    C1       C        0.50000    0.30370    0.69520    1.000
    N2       N        0.50000    0.80870    0.81010    1.000
    C2       C        0.50000    0.69630    0.69520    1.000
    N3       N        0.50000    0.19130    0.18990    1.000
    C3       C        0.50000    0.30370    0.30480    1.000
    N4       N        0.50000    0.80870    0.18990    1.000
    C4       C        0.50000    0.69630    0.30480    1.000
    N5       N        0.20740    0.00000    0.00000    1.000
    N6       N        0.79260    0.00000    0.00000    1.000
    C5       C        0.10200    0.84080    0.00000    1.000
    H1       H        0.17040    0.72420    0.00000    1.000
    C6       C        0.89800    0.15920    0.00000    1.000
    H2       H        0.82960    0.27580    0.00000    1.000
    C7       C        0.89800    0.84080    0.00000    1.000
    H3       H        0.82960    0.72420    0.00000    1.000
    C8       C        0.10200    0.15920    0.00000    1.000
    H4       H        0.17040    0.27580    0.00000    1.000
