# CIF file generated by openbabel 3.1.0, see https://openbabel.org
data_I
_chemical_name_common 'image0'
_cell_length_a 8.4034
_cell_length_b 10.5334
_cell_length_c 14.3515
_cell_angle_alpha 100.83
_cell_angle_beta 103.41
_cell_angle_gamma 101.56
_space_group_name_H-M_alt 'P 1'
_space_group_name_Hall 'P 1'
loop_
    _symmetry_equiv_pos_as_xyz
    x,y,z
loop_
    _atom_site_label
    _atom_site_type_symbol
    _atom_site_fract_x
    _atom_site_fract_y
    _atom_site_fract_z
    _atom_site_occupancy
    Yb1      Yb       0.15434    0.15948    0.17018    1.000
    O1       O        0.15240    0.95250    0.09604    1.000
    O2       O        0.96950    0.79040    0.97183    1.000
    O3       O        0.07520    0.32600    0.25876    1.000
    O4       O        0.21980    0.49560    0.38750    1.000
    O5       O        0.16720    0.07590    0.31692    1.000
    O6       O        0.40690    0.14510    0.28506    1.000
    O7       O        0.35430    0.36080    0.18849    1.000
    O8       O        0.37650    0.19170    0.08062    1.000
    C1       C        0.08590    0.73400    0.12080    1.000
    C2       C        0.21160    0.76890    0.21050    1.000
    H1       H        0.28620    0.85350    0.23160    1.000
    C3       C        0.22540    0.67830    0.26780    1.000
    H2       H        0.30620    0.70420    0.32900    1.000
    C4       C        0.12090    0.54860    0.23630    1.000
    C5       C        0.99680    0.51340    0.14600    1.000
    H3       H        0.92620    0.42730    0.12310    1.000
    C6       C        0.97830    0.60660    0.08990    1.000
    H4       H        0.89250    0.58300    0.03080    1.000
    C7       C        0.06720    0.83370    0.05830    1.000
    C8       C        0.14320    0.45040    0.29970    1.000
    C9       C        0.41610    0.04470    0.42120    1.000
    C10      C        0.32670    0.97920    0.47670    1.000
    H5       H        0.20980    0.96530    0.46140    1.000
    C11      C        0.32470    0.09150    0.33710    1.000
    C12      C        0.45810    0.41190    0.05630    1.000
    C13      C        0.53150    0.37460    0.98210    1.000
    H6       H        0.55270    0.29060    0.96990    1.000
    C14      C        0.42660    0.53700    0.07420    1.000
    H7       H        0.37730    0.56200    0.12420    1.000
    C15      C        0.39700    0.31560    0.11240    1.000
    C16      C        0.59010    0.06500    0.44610    1.000
    H8       H        0.65170    0.10900    0.41030    1.000
    Yb2      Yb       0.84566    0.84052    0.82982    1.000
    O9       O        0.84760    0.04750    0.90396    1.000
    O10      O        0.03050    0.20960    0.02817    1.000
    O11      O        0.92480    0.67400    0.74124    1.000
    O12      O        0.78020    0.50440    0.61250    1.000
    O13      O        0.83280    0.92410    0.68308    1.000
    O14      O        0.59310    0.85490    0.71494    1.000
    O15      O        0.64570    0.63920    0.81151    1.000
    O16      O        0.62350    0.80830    0.91938    1.000
    C17      C        0.91410    0.26600    0.87920    1.000
    C18      C        0.78840    0.23110    0.78950    1.000
    H9       H        0.71380    0.14650    0.76840    1.000
    C19      C        0.77460    0.32170    0.73220    1.000
    H10      H        0.69380    0.29580    0.67100    1.000
    C20      C        0.87910    0.45140    0.76370    1.000
    C21      C        0.00320    0.48660    0.85400    1.000
    H11      H        0.07380    0.57270    0.87690    1.000
    C22      C        0.02170    0.39340    0.91010    1.000
    H12      H        0.10750    0.41700    0.96920    1.000
    C23      C        0.93280    0.16630    0.94170    1.000
    C24      C        0.85680    0.54960    0.70030    1.000
    C25      C        0.58390    0.95530    0.57880    1.000
    C26      C        0.67330    0.02080    0.52330    1.000
    H13      H        0.79020    0.03470    0.53860    1.000
    C27      C        0.67530    0.90850    0.66290    1.000
    C28      C        0.54190    0.58810    0.94370    1.000
    C29      C        0.46850    0.62540    0.01790    1.000
    H14      H        0.44730    0.70940    0.03010    1.000
    C30      C        0.57340    0.46300    0.92580    1.000
    H15      H        0.62270    0.43800    0.87580    1.000
    C31      C        0.60300    0.68440    0.88760    1.000
    C32      C        0.40990    0.93500    0.55390    1.000
    H16      H        0.34830    0.89100    0.58970    1.000
