# CIF file generated by openbabel 3.1.0, see https://openbabel.org
data_I
_chemical_name_common 'image0'
_cell_length_a 26.0349
_cell_length_b 26.0349
_cell_length_c 6.8508
_cell_angle_alpha 90
_cell_angle_beta 90
_cell_angle_gamma 120
_space_group_name_H-M_alt 'P 1'
_space_group_name_Hall 'P 1'
loop_
    _symmetry_equiv_pos_as_xyz
    x,y,z
loop_
    _atom_site_label
    _atom_site_type_symbol
    _atom_site_fract_x
    _atom_site_fract_y
    _atom_site_fract_z
    _atom_site_occupancy
    Fe1      Fe       0.38439    0.35309    0.14000    1.000
    O1       O        0.32563    0.29358    0.36230    1.000
    O2       O        0.30203    0.22925    0.60310    1.000
    O3       O        0.35372    0.27267    0.01170    1.000
    C1       C        0.31741    0.24599    0.42000    1.000
    C2       C        0.32779    0.20396    0.28930    1.000
    C3       C        0.34479    0.22365    0.09160    1.000
    C4       C        0.35013    0.18239    0.97610    1.000
    H1       H        0.36090    0.19340    0.82740    1.000
    Fe2      Fe       0.05106    0.68642    0.47333    1.000
    O4       O        0.99230    0.62691    0.69563    1.000
    O5       O        0.96870    0.56258    0.93643    1.000
    O6       O        0.02039    0.60600    0.34503    1.000
    C5       C        0.98408    0.57932    0.75333    1.000
    C6       C        0.99446    0.53729    0.62263    1.000
    C7       C        0.01146    0.55698    0.42493    1.000
    C8       C        0.01680    0.51572    0.30943    1.000
    H2       H        0.02757    0.52673    0.16073    1.000
    Fe3      Fe       0.71772    0.01976    0.80667    1.000
    O7       O        0.65896    0.96025    0.02897    1.000
    O8       O        0.63536    0.89592    0.26977    1.000
    O9       O        0.68705    0.93934    0.67837    1.000
    C9       C        0.65074    0.91266    0.08667    1.000
    C10      C        0.66112    0.87063    0.95597    1.000
    C11      C        0.67812    0.89032    0.75827    1.000
    C12      C        0.68346    0.84906    0.64277    1.000
    H3       H        0.69423    0.86007    0.49407    1.000
    Fe4      Fe       0.64691    0.03130    0.14000    1.000
    O10      O        0.70642    0.03205    0.36230    1.000
    O11      O        0.77075    0.07278    0.60310    1.000
    O12      O        0.72733    0.08105    0.01170    1.000
    C13      C        0.75401    0.07142    0.42000    1.000
    C14      C        0.79604    0.12383    0.28930    1.000
    C15      C        0.77635    0.12114    0.09160    1.000
    C16      C        0.81761    0.16774    0.97610    1.000
    H4       H        0.80660    0.16750    0.82740    1.000
    Fe5      Fe       0.31358    0.36463    0.47333    1.000
    O13      O        0.37309    0.36538    0.69563    1.000
    O14      O        0.43742    0.40611    0.93643    1.000
    O15      O        0.39400    0.41438    0.34503    1.000
    C17      C        0.42068    0.40475    0.75333    1.000
    C18      C        0.46271    0.45716    0.62263    1.000
    C19      C        0.44302    0.45447    0.42493    1.000
    C20      C        0.48428    0.50107    0.30943    1.000
    H5       H        0.47327    0.50083    0.16073    1.000
    Fe6      Fe       0.98024    0.69797    0.80667    1.000
    O16      O        0.03975    0.69872    0.02897    1.000
    O17      O        0.10408    0.73945    0.26977    1.000
    O18      O        0.06066    0.74772    0.67837    1.000
    C21      C        0.08734    0.73809    0.08667    1.000
    C22      C        0.12937    0.79050    0.95597    1.000
    C23      C        0.10968    0.78781    0.75827    1.000
    C24      C        0.15094    0.83441    0.64277    1.000
    H6       H        0.13993    0.83417    0.49407    1.000
    Fe7      Fe       0.96870    0.61561    0.14000    1.000
    O19      O        0.96795    0.67437    0.36230    1.000
    O20      O        0.92722    0.69797    0.60310    1.000
    O21      O        0.91895    0.64628    0.01170    1.000
    C25      C        0.92858    0.68259    0.42000    1.000
    C26      C        0.87617    0.67221    0.28930    1.000
    C27      C        0.87886    0.65521    0.09160    1.000
    C28      C        0.83226    0.64987    0.97610    1.000
    H7       H        0.83250    0.63910    0.82740    1.000
    Fe8      Fe       0.63537    0.94894    0.47333    1.000
    O22      O        0.63462    0.00770    0.69563    1.000
    O23      O        0.59389    0.03130    0.93643    1.000
    O24      O        0.58562    0.97961    0.34503    1.000
    C29      C        0.59525    0.01592    0.75333    1.000
    C30      C        0.54284    0.00554    0.62263    1.000
    C31      C        0.54553    0.98854    0.42493    1.000
    C32      C        0.49893    0.98320    0.30943    1.000
    H8       H        0.49917    0.97243    0.16073    1.000
    Fe9      Fe       0.30203    0.28228    0.80667    1.000
    O25      O        0.30128    0.34104    0.02897    1.000
    O26      O        0.26055    0.36464    0.26977    1.000
    O27      O        0.25228    0.31295    0.67837    1.000
    C33      C        0.26191    0.34926    0.08667    1.000
    C34      C        0.20950    0.33888    0.95597    1.000
    C35      C        0.21219    0.32188    0.75827    1.000
    C36      C        0.16559    0.31654    0.64277    1.000
    H9       H        0.16583    0.30577    0.49407    1.000
    Fe10     Fe       0.61561    0.64691    0.86000    1.000
    O28      O        0.67437    0.70642    0.63770    1.000
    O29      O        0.69797    0.77075    0.39690    1.000
    O30      O        0.64628    0.72733    0.98830    1.000
    C37      C        0.68259    0.75401    0.58000    1.000
    C38      C        0.67221    0.79604    0.71070    1.000
    C39      C        0.65521    0.77635    0.90840    1.000
    C40      C        0.64987    0.81761    0.02390    1.000
    H10      H        0.63910    0.80660    0.17260    1.000
    Fe11     Fe       0.28228    0.98024    0.19333    1.000
    O31      O        0.34104    0.03975    0.97103    1.000
    O32      O        0.36464    0.10408    0.73023    1.000
    O33      O        0.31295    0.06066    0.32163    1.000
    C41      C        0.34926    0.08734    0.91333    1.000
    C42      C        0.33888    0.12937    0.04403    1.000
    C43      C        0.32188    0.10968    0.24173    1.000
    C44      C        0.31654    0.15094    0.35723    1.000
    H11      H        0.30577    0.13993    0.50593    1.000
    Fe12     Fe       0.94894    0.31358    0.52667    1.000
    O34      O        0.00770    0.37309    0.30437    1.000
    O35      O        0.03130    0.43742    0.06357    1.000
    O36      O        0.97961    0.39400    0.65497    1.000
    C45      C        0.01592    0.42068    0.24667    1.000
    C46      C        0.00554    0.46271    0.37737    1.000
    C47      C        0.98854    0.44302    0.57507    1.000
    C48      C        0.98320    0.48428    0.69057    1.000
    H12      H        0.97243    0.47327    0.83927    1.000
    Fe13     Fe       0.35309    0.96870    0.86000    1.000
    O37      O        0.29358    0.96795    0.63770    1.000
    O38      O        0.22925    0.92722    0.39690    1.000
    O39      O        0.27267    0.91895    0.98830    1.000
    C49      C        0.24599    0.92858    0.58000    1.000
    C50      C        0.20396    0.87617    0.71070    1.000
    C51      C        0.22365    0.87886    0.90840    1.000
    C52      C        0.18239    0.83226    0.02390    1.000
    H13      H        0.19340    0.83250    0.17260    1.000
    Fe14     Fe       0.01976    0.30203    0.19333    1.000
    O40      O        0.96025    0.30128    0.97103    1.000
    O41      O        0.89592    0.26055    0.73023    1.000
    O42      O        0.93934    0.25228    0.32163    1.000
    C53      C        0.91266    0.26191    0.91333    1.000
    C54      C        0.87063    0.20950    0.04403    1.000
    C55      C        0.89032    0.21219    0.24173    1.000
    C56      C        0.84906    0.16559    0.35723    1.000
    H14      H        0.86007    0.16583    0.50593    1.000
    Fe15     Fe       0.68642    0.63537    0.52667    1.000
    O43      O        0.62691    0.63462    0.30437    1.000
    O44      O        0.56258    0.59389    0.06357    1.000
    O45      O        0.60600    0.58562    0.65497    1.000
    C57      C        0.57932    0.59525    0.24667    1.000
    C58      C        0.53729    0.54284    0.37737    1.000
    C59      C        0.55698    0.54553    0.57507    1.000
    C60      C        0.51572    0.49893    0.69057    1.000
    H15      H        0.52673    0.49917    0.83927    1.000
    Fe16     Fe       0.03130    0.38439    0.86000    1.000
    O46      O        0.03205    0.32563    0.63770    1.000
    O47      O        0.07278    0.30203    0.39690    1.000
    O48      O        0.08105    0.35372    0.98830    1.000
    C61      C        0.07142    0.31741    0.58000    1.000
    C62      C        0.12383    0.32779    0.71070    1.000
    C63      C        0.12114    0.34479    0.90840    1.000
    C64      C        0.16774    0.35013    0.02390    1.000
    H16      H        0.16750    0.36090    0.17260    1.000
    Fe17     Fe       0.69797    0.71772    0.19333    1.000
    O49      O        0.69872    0.65896    0.97103    1.000
    O50      O        0.73945    0.63536    0.73023    1.000
    O51      O        0.74772    0.68705    0.32163    1.000
    C65      C        0.73809    0.65074    0.91333    1.000
    C66      C        0.79050    0.66112    0.04403    1.000
    C67      C        0.78781    0.67812    0.24173    1.000
    C68      C        0.83441    0.68346    0.35723    1.000
    H17      H        0.83417    0.69423    0.50593    1.000
    Fe18     Fe       0.36463    0.05106    0.52667    1.000
    O52      O        0.36538    0.99230    0.30437    1.000
    O53      O        0.40611    0.96870    0.06357    1.000
    O54      O        0.41438    0.02039    0.65497    1.000
    C69      C        0.40475    0.98408    0.24667    1.000
    C70      C        0.45716    0.99446    0.37737    1.000
    C71      C        0.45447    0.01146    0.57507    1.000
    C72      C        0.50107    0.01680    0.69057    1.000
    H18      H        0.50083    0.02757    0.83927    1.000
