# CIF file generated by openbabel 3.1.0, see https://openbabel.org
data_I
_chemical_name_common 'image0'
_cell_length_a 10.391
_cell_length_b 15.056
_cell_length_c 10.121
_cell_angle_alpha 101.363
_cell_angle_beta 101.115
_cell_angle_gamma 105.737
_space_group_name_H-M_alt 'P 1'
_space_group_name_Hall 'P 1'
loop_
    _symmetry_equiv_pos_as_xyz
    x,y,z
loop_
    _atom_site_label
    _atom_site_type_symbol
    _atom_site_fract_x
    _atom_site_fract_y
    _atom_site_fract_z
    _atom_site_occupancy
    Pr1      Pr       0.03242    0.19445    0.78012    1.000
    Pr2      Pr       0.00639    0.22275    0.28923    1.000
    O1       O        0.19890    0.32360    0.22780    1.000
    O2       O        0.18120    0.25960    0.00750    1.000
    O3       O        0.84070    0.64350    0.23840    1.000
    O4       O        0.84500    0.53770    0.05070    1.000
    O5       O        0.84220    0.10320    0.85670    1.000
    O6       O        0.83580    0.15640    0.07270    1.000
    O7       O        0.10930    0.94190    0.68930    1.000
    O8       O        0.12180    0.06560    0.85760    1.000
    O9       O        0.88070    0.21840    0.59320    1.000
    O10      O        0.82190    0.24530    0.38750    1.000
    O11      O        0.22380    0.18290    0.68120    1.000
    O12      O        0.15900    0.19530    0.46940    1.000
    N1       N        0.39270    0.49650    0.34720    1.000
    N2       N        0.65900    0.37100    0.96900    1.000
    N3       N        0.60110    0.99140    0.66710    1.000
    N4       N        0.35800    0.13100    0.05800    1.000
    N5       N        0.59950    0.29300    0.31870    1.000
    N6       N        0.49700    0.24410    0.79700    1.000
    C1       C        0.24620    0.31830    0.12320    1.000
    C2       C        0.38660    0.38290    0.13610    1.000
    C3       C        0.45490    0.35670    0.03470    1.000
    H1       H        0.40950    0.30130    0.96260    1.000
    C4       C        0.58860    0.41120    0.03930    1.000
    C5       C        0.64970    0.49680    0.14530    1.000
    C6       C        0.58460    0.52380    0.24270    1.000
    H2       H        0.62830    0.58120    0.31130    1.000
    C7       C        0.45270    0.46670    0.24220    1.000
    C8       C        0.78880    0.56380    0.14420    1.000
    C9       C        0.77820    0.11720    0.94680    1.000
    C10      C        0.62260    0.08620    0.90180    1.000
    C11      C        0.55410    0.12130    0.99630    1.000
    H3       H        0.60640    0.16040    0.08410    1.000
    C12      C        0.41150    0.09980    0.96390    1.000
    C13      C        0.33350    0.03780    0.83300    1.000
    C14      C        0.39820    0.00110    0.73900    1.000
    H4       H        0.34480    0.95910    0.65350    1.000
    C15      C        0.54460    0.02630    0.77010    1.000
    C16      C        0.17870    0.01410    0.79220    1.000
    C17      C        0.79750    0.23410    0.50120    1.000
    C18      C        0.66090    0.23720    0.52380    1.000
    C19      C        0.62670    0.21860    0.64360    1.000
    H5       H        0.69260    0.21000    0.71190    1.000
    C20      C        0.49660    0.21230    0.66470    1.000
    C21      C        0.39710    0.22160    0.56060    1.000
    C22      C        0.43100    0.24410    0.44340    1.000
    H6       H        0.36380    0.25080    0.37440    1.000
    C23      C        0.56440    0.25690    0.42660    1.000
    C24      C        0.25070    0.19920    0.57180    1.000
    Pr3      Pr       0.96758    0.80555    0.21988    1.000
    Pr4      Pr       0.99361    0.77725    0.71077    1.000
    O13      O        0.80110    0.67640    0.77220    1.000
    O14      O        0.81880    0.74040    0.99250    1.000
    O15      O        0.15930    0.35650    0.76160    1.000
    O16      O        0.15500    0.46230    0.94930    1.000
    O17      O        0.15780    0.89680    0.14330    1.000
    O18      O        0.16420    0.84360    0.92730    1.000
    O19      O        0.89070    0.05810    0.31070    1.000
    O20      O        0.87820    0.93440    0.14240    1.000
    O21      O        0.11930    0.78160    0.40680    1.000
    O22      O        0.17810    0.75470    0.61250    1.000
    O23      O        0.77620    0.81710    0.31880    1.000
    O24      O        0.84100    0.80470    0.53060    1.000
    N7       N        0.60730    0.50350    0.65280    1.000
    N8       N        0.34100    0.62900    0.03100    1.000
    N9       N        0.39890    0.00860    0.33290    1.000
    N10      N        0.64200    0.86900    0.94200    1.000
    N11      N        0.40050    0.70700    0.68130    1.000
    N12      N        0.50300    0.75590    0.20300    1.000
    C25      C        0.75380    0.68170    0.87680    1.000
    C26      C        0.61340    0.61710    0.86390    1.000
    C27      C        0.54510    0.64330    0.96530    1.000
    H7       H        0.59050    0.69870    0.03740    1.000
    C28      C        0.41140    0.58880    0.96070    1.000
    C29      C        0.35030    0.50320    0.85470    1.000
    C30      C        0.41540    0.47620    0.75730    1.000
    H8       H        0.37170    0.41880    0.68870    1.000
    C31      C        0.54730    0.53330    0.75780    1.000
    C32      C        0.21120    0.43620    0.85580    1.000
    C33      C        0.22180    0.88280    0.05320    1.000
    C34      C        0.37740    0.91380    0.09820    1.000
    C35      C        0.44590    0.87870    0.00370    1.000
    H9       H        0.39360    0.83960    0.91590    1.000
    C36      C        0.58850    0.90020    0.03610    1.000
    C37      C        0.66650    0.96220    0.16700    1.000
    C38      C        0.60180    0.99890    0.26100    1.000
    H10      H        0.65520    0.04090    0.34650    1.000
    C39      C        0.45540    0.97370    0.22990    1.000
    C40      C        0.82130    0.98590    0.20780    1.000
    C41      C        0.20250    0.76590    0.49880    1.000
    C42      C        0.33910    0.76280    0.47620    1.000
    C43      C        0.37330    0.78140    0.35640    1.000
    H11      H        0.30740    0.79000    0.28810    1.000
    C44      C        0.50340    0.78770    0.33530    1.000
    C45      C        0.60290    0.77840    0.43940    1.000
    C46      C        0.56900    0.75590    0.55660    1.000
    H12      H        0.63620    0.74920    0.62560    1.000
    C47      C        0.43560    0.74310    0.57340    1.000
    C48      C        0.74930    0.80080    0.42820    1.000
