# CIF file generated by openbabel 3.1.0, see https://openbabel.org
data_I
_chemical_name_common 'QEBGAH_clean'
_cell_length_a 9.858
_cell_length_b 12.565
_cell_length_c 29.618
_cell_angle_alpha 90
_cell_angle_beta 90
_cell_angle_gamma 105.695
_space_group_name_H-M_alt 'P 1'
_space_group_name_Hall 'P 1'
loop_
    _symmetry_equiv_pos_as_xyz
    x,y,z
loop_
    _atom_site_label
    _atom_site_type_symbol
    _atom_site_fract_x
    _atom_site_fract_y
    _atom_site_fract_z
    _atom_site_occupancy
    Co1      Co       0.96198    0.64291    0.94246    1.000
    Co2      Co       0.53802    0.35709    0.44246    1.000
    H1       H        0.59720    0.12710    0.19990    1.000
    H2       H        0.28810    0.71870    0.04910    1.000
    H3       H        0.68960    0.70070    0.05440    1.000
    H4       H        0.46420    0.61980    0.93930    1.000
    H5       H        0.67440    0.70680    0.12420    1.000
    H6       H        0.68460    0.75890    0.20000    1.000
    H7       H        0.35420    0.88520    0.18160    1.000
    H8       H        0.34390    0.83390    0.10590    1.000
    H9       H        0.53690    0.68930    0.26370    1.000
    H10      H        0.31040    0.98490    0.37480    1.000
    H11      H        0.32880    0.14290    0.41750    1.000
    H12      H        0.69940    0.28700    0.36470    1.000
    H13      H        0.68150    0.13930    0.31670    1.000
    H14      H        0.43250    0.71430    0.40750    1.000
    H15      H        0.44510    0.56430    0.45090    1.000
    H16      H        0.67610    0.47130    0.36020    1.000
    H17      H        0.66210    0.61220    0.31230    1.000
    H18      H        0.90280    0.87290    0.69990    1.000
    H19      H        0.21190    0.28130    0.54910    1.000
    H20      H        0.81040    0.29930    0.55440    1.000
    H21      H        0.03580    0.38020    0.43930    1.000
    H22      H        0.82560    0.29320    0.62420    1.000
    H23      H        0.81540    0.24110    0.70000    1.000
    H24      H        0.14580    0.11480    0.68160    1.000
    H25      H        0.15610    0.16610    0.60590    1.000
    H26      H        0.96310    0.31070    0.76370    1.000
    H27      H        0.18960    0.01510    0.87480    1.000
    H28      H        0.17120    0.85710    0.91750    1.000
    H29      H        0.80060    0.71300    0.86470    1.000
    H30      H        0.81850    0.86070    0.81670    1.000
    H31      H        0.06750    0.28570    0.90750    1.000
    H32      H        0.05490    0.43570    0.95090    1.000
    H33      H        0.82390    0.52870    0.86020    1.000
    H34      H        0.83790    0.38780    0.81230    1.000
    C1       C        0.23010    0.66430    0.96260    1.000
    C2       C        0.35980    0.66850    0.99010    1.000
    C3       C        0.36820    0.70430    0.03530    1.000
    C4       C        0.49070    0.71870    0.05980    1.000
    C5       C        0.60390    0.69240    0.03840    1.000
    C6       C        0.59370    0.65430    0.99410    1.000
    C7       C        0.47070    0.64390    0.96980    1.000
    C8       C        0.71930    0.63460    0.97120    1.000
    C9       C        0.50370    0.76020    0.10710    1.000
    C10      C        0.60710    0.74140    0.13570    1.000
    C11      C        0.61320    0.77270    0.18120    1.000
    C12      C        0.51680    0.82340    0.19920    1.000
    C13      C        0.41840    0.84720    0.17030    1.000
    C14      C        0.41220    0.81630    0.12500    1.000
    C15      C        0.51560    0.84200    0.24880    1.000
    C16      C        0.52620    0.75580    0.27660    1.000
    C17      C        0.52140    0.76640    0.32280    1.000
    C18      C        0.49900    0.94250    0.31680    1.000
    C19      C        0.50310    0.93840    0.26960    1.000
    C20      C        0.49420    0.03680    0.24190    1.000
    C21      C        0.50000    0.04370    0.34170    1.000
    C22      C        0.39100    0.04630    0.37210    1.000
    C23      C        0.40410    0.14080    0.39780    1.000
    C24      C        0.61860    0.22540    0.36650    1.000
    C25      C        0.60990    0.13620    0.33850    1.000
    C26      C        0.53510    0.67590    0.35350    1.000
    C27      C        0.47820    0.66250    0.39590    1.000
    C28      C        0.48760    0.57330    0.42190    1.000
    C29      C        0.62050    0.51900    0.36890    1.000
    C30      C        0.61400    0.60300    0.34050    1.000
    C31      C        0.26990    0.33570    0.46260    1.000
    C32      C        0.14020    0.33150    0.49010    1.000
    C33      C        0.13180    0.29570    0.53530    1.000
    C34      C        0.00930    0.28130    0.55980    1.000
    C35      C        0.89610    0.30760    0.53840    1.000
    C36      C        0.90630    0.34570    0.49410    1.000
    C37      C        0.02930    0.35610    0.46980    1.000
    C38      C        0.78070    0.36540    0.47120    1.000
    C39      C        0.99630    0.23980    0.60710    1.000
    C40      C        0.89290    0.25860    0.63570    1.000
    C41      C        0.88680    0.22730    0.68120    1.000
    C42      C        0.98320    0.17660    0.69920    1.000
    C43      C        0.08160    0.15280    0.67030    1.000
    C44      C        0.08780    0.18370    0.62500    1.000
    C45      C        0.98440    0.15800    0.74880    1.000
    C46      C        0.97380    0.24420    0.77660    1.000
    C47      C        0.97860    0.23360    0.82280    1.000
    C48      C        0.00100    0.05750    0.81680    1.000
    C49      C        0.99690    0.06160    0.76960    1.000
    C50      C        0.00580    0.96320    0.74190    1.000
    C51      C        0.00000    0.95630    0.84170    1.000
    C52      C        0.10900    0.95370    0.87210    1.000
    C53      C        0.09590    0.85920    0.89780    1.000
    C54      C        0.88140    0.77460    0.86650    1.000
    C55      C        0.89010    0.86380    0.83850    1.000
    C56      C        0.96490    0.32410    0.85350    1.000
    C57      C        0.02180    0.33750    0.89590    1.000
    C58      C        0.01240    0.42670    0.92190    1.000
    C59      C        0.87950    0.48100    0.86890    1.000
    C60      C        0.88600    0.39700    0.84050    1.000
    N1       N        0.50530    0.85770    0.34291    1.000
    N2       N        0.51540    0.22850    0.39675    1.000
    N3       N        0.55270    0.50050    0.40829    1.000
    N4       N        0.99470    0.14230    0.84291    1.000
    N5       N        0.98460    0.77150    0.89675    1.000
    N6       N        0.94730    0.49950    0.90829    1.000
    O1       O        0.12190    0.66400    0.98373    1.000
    O2       O        0.23760    0.65990    0.92046    1.000
    O3       O        0.83040    0.65180    0.99280    1.000
    O4       O        0.71430    0.60690    0.93075    1.000
    O5       O        0.38240    0.06050    0.23904    1.000
    O6       O        0.61470    0.08970    0.22160    1.000
    O7       O        0.37810    0.33600    0.48373    1.000
    O8       O        0.26240    0.34010    0.42046    1.000
    O9       O        0.66960    0.34820    0.49280    1.000
    O10      O        0.78570    0.39310    0.43075    1.000
    O11      O        0.11760    0.93950    0.73904    1.000
    O12      O        0.88530    0.91030    0.72160    1.000
    Co3      Co       0.03802    0.35709    0.05754    1.000
    Co4      Co       0.46198    0.64291    0.55754    1.000
    H35      H        0.40280    0.87290    0.80010    1.000
    H36      H        0.71190    0.28130    0.95090    1.000
    H37      H        0.31040    0.29930    0.94560    1.000
    H38      H        0.53580    0.38020    0.06070    1.000
    H39      H        0.32560    0.29320    0.87580    1.000
    H40      H        0.31540    0.24110    0.80000    1.000
    H41      H        0.64580    0.11480    0.81840    1.000
    H42      H        0.65610    0.16610    0.89410    1.000
    H43      H        0.46310    0.31070    0.73630    1.000
    H44      H        0.68960    0.01510    0.62520    1.000
    H45      H        0.67120    0.85710    0.58250    1.000
    H46      H        0.30060    0.71300    0.63530    1.000
    H47      H        0.31850    0.86070    0.68330    1.000
    H48      H        0.56750    0.28570    0.59250    1.000
    H49      H        0.55490    0.43570    0.54910    1.000
    H50      H        0.32390    0.52870    0.63980    1.000
    H51      H        0.33790    0.38780    0.68770    1.000
    H52      H        0.09720    0.12710    0.30010    1.000
    H53      H        0.78810    0.71870    0.45090    1.000
    H54      H        0.18960    0.70070    0.44560    1.000
    H55      H        0.96420    0.61980    0.56070    1.000
    H56      H        0.17440    0.70680    0.37580    1.000
    H57      H        0.18460    0.75890    0.30000    1.000
    H58      H        0.85420    0.88520    0.31840    1.000
    H59      H        0.84390    0.83390    0.39410    1.000
    H60      H        0.03690    0.68930    0.23630    1.000
    H61      H        0.81040    0.98490    0.12520    1.000
    H62      H        0.82880    0.14290    0.08250    1.000
    H63      H        0.19940    0.28700    0.13530    1.000
    H64      H        0.18150    0.13930    0.18330    1.000
    H65      H        0.93250    0.71430    0.09250    1.000
    H66      H        0.94510    0.56430    0.04910    1.000
    H67      H        0.17610    0.47130    0.13980    1.000
    H68      H        0.16210    0.61220    0.18770    1.000
    C61      C        0.76990    0.33570    0.03740    1.000
    C62      C        0.64020    0.33150    0.00990    1.000
    C63      C        0.63180    0.29570    0.96470    1.000
    C64      C        0.50930    0.28130    0.94020    1.000
    C65      C        0.39610    0.30760    0.96160    1.000
    C66      C        0.40630    0.34570    0.00590    1.000
    C67      C        0.52930    0.35610    0.03020    1.000
    C68      C        0.28070    0.36540    0.02880    1.000
    C69      C        0.49630    0.23980    0.89290    1.000
    C70      C        0.39290    0.25860    0.86430    1.000
    C71      C        0.38680    0.22730    0.81880    1.000
    C72      C        0.48320    0.17660    0.80080    1.000
    C73      C        0.58160    0.15280    0.82970    1.000
    C74      C        0.58780    0.18370    0.87500    1.000
    C75      C        0.48440    0.15800    0.75120    1.000
    C76      C        0.47380    0.24420    0.72340    1.000
    C77      C        0.47860    0.23360    0.67720    1.000
    C78      C        0.50100    0.05750    0.68320    1.000
    C79      C        0.49690    0.06160    0.73040    1.000
    C80      C        0.50580    0.96320    0.75810    1.000
    C81      C        0.50000    0.95630    0.65830    1.000
    C82      C        0.60900    0.95370    0.62790    1.000
    C83      C        0.59590    0.85920    0.60220    1.000
    C84      C        0.38140    0.77460    0.63350    1.000
    C85      C        0.39010    0.86380    0.66150    1.000
    C86      C        0.46490    0.32410    0.64650    1.000
    C87      C        0.52180    0.33750    0.60410    1.000
    C88      C        0.51240    0.42670    0.57810    1.000
    C89      C        0.37950    0.48100    0.63110    1.000
    C90      C        0.38600    0.39700    0.65950    1.000
    C91      C        0.73010    0.66430    0.53740    1.000
    C92      C        0.85980    0.66850    0.50990    1.000
    C93      C        0.86820    0.70430    0.46470    1.000
    C94      C        0.99070    0.71870    0.44020    1.000
    C95      C        0.10390    0.69240    0.46160    1.000
    C96      C        0.09370    0.65430    0.50590    1.000
    C97      C        0.97070    0.64390    0.53020    1.000
    C98      C        0.21930    0.63460    0.52880    1.000
    C99      C        0.00370    0.76020    0.39290    1.000
    C100     C        0.10710    0.74140    0.36430    1.000
    C101     C        0.11320    0.77270    0.31880    1.000
    C102     C        0.01680    0.82340    0.30080    1.000
    C103     C        0.91840    0.84720    0.32970    1.000
    C104     C        0.91220    0.81630    0.37500    1.000
    C105     C        0.01560    0.84200    0.25120    1.000
    C106     C        0.02620    0.75580    0.22340    1.000
    C107     C        0.02140    0.76640    0.17720    1.000
    C108     C        0.99900    0.94250    0.18320    1.000
    C109     C        0.00310    0.93840    0.23040    1.000
    C110     C        0.99420    0.03680    0.25810    1.000
    C111     C        0.00000    0.04370    0.15830    1.000
    C112     C        0.89100    0.04630    0.12790    1.000
    C113     C        0.90410    0.14080    0.10220    1.000
    C114     C        0.11860    0.22540    0.13350    1.000
    C115     C        0.10990    0.13620    0.16150    1.000
    C116     C        0.03510    0.67590    0.14650    1.000
    C117     C        0.97820    0.66250    0.10410    1.000
    C118     C        0.98760    0.57330    0.07810    1.000
    C119     C        0.12050    0.51900    0.13110    1.000
    C120     C        0.11400    0.60300    0.15950    1.000
    N7       N        0.49470    0.14230    0.65709    1.000
    N8       N        0.48460    0.77150    0.60325    1.000
    N9       N        0.44730    0.49950    0.59171    1.000
    N10      N        0.00530    0.85770    0.15709    1.000
    N11      N        0.01540    0.22850    0.10325    1.000
    N12      N        0.05270    0.50050    0.09171    1.000
    O13      O        0.87810    0.33600    0.01627    1.000
    O14      O        0.76240    0.34010    0.07954    1.000
    O15      O        0.16960    0.34820    0.00720    1.000
    O16      O        0.28570    0.39310    0.06925    1.000
    O17      O        0.61760    0.93950    0.76096    1.000
    O18      O        0.38530    0.91030    0.77840    1.000
    O19      O        0.62190    0.66400    0.51627    1.000
    O20      O        0.73760    0.65990    0.57954    1.000
    O21      O        0.33040    0.65180    0.50720    1.000
    O22      O        0.21430    0.60690    0.56925    1.000
    O23      O        0.88240    0.06050    0.26096    1.000
    O24      O        0.11470    0.08970    0.27840    1.000
