# CIF file generated by openbabel 3.1.0, see https://openbabel.org
data_I
_chemical_name_common 'image0'
_cell_length_a 12.965
_cell_length_b 12.9796
_cell_length_c 20.1038
_cell_angle_alpha 90
_cell_angle_beta 95.1696
_cell_angle_gamma 90
_space_group_name_H-M_alt 'P 1'
_space_group_name_Hall 'P 1'
loop_
    _symmetry_equiv_pos_as_xyz
    x,y,z
loop_
    _atom_site_label
    _atom_site_type_symbol
    _atom_site_fract_x
    _atom_site_fract_y
    _atom_site_fract_z
    _atom_site_occupancy
    Np1      Np       0.39955    0.87538    0.36814    1.000
    Np2      Np       0.27940    0.58770    0.30416    1.000
    Np3      Np       0.19840    0.28560    0.33833    1.000
    Np4      Np       0.01119    0.69678    0.37210    1.000
    Np5      Np       0.09828    0.97871    0.30194    1.000
    Np6      Np       0.69516    0.78133    0.33544    1.000
    Np7      Np       0.80141    0.09073    0.34236    1.000
    Np8      Np       0.50905    0.17623    0.33237    1.000
    Np9      Np       0.89281    0.39440    0.33497    1.000
    Np10     Np       0.58494    0.47520    0.33870    1.000
    O1       O        0.06310    0.32340    0.34800    1.000
    O2       O        0.94560    0.51960    0.36320    1.000
    O3       O        0.46220    0.05280    0.36080    1.000
    O4       O        0.45280    0.52030    0.31250    1.000
    O5       O        0.71990    0.43340    0.36210    1.000
    O6       O        0.49710    0.21870    0.45950    1.000
    O7       O        0.73290    0.91840    0.33910    1.000
    O8       O        0.47570    0.34650    0.75590    1.000
    O9       O        0.74570    0.06740    0.21300    1.000
    O10      O        0.58450    0.00550    0.91950    1.000
    O11      O        0.33470    0.24520    0.33550    1.000
    O12      O        0.33240    0.54410    0.42240    1.000
    O13      O        0.31370    0.51320    0.73360    1.000
    O14      O        0.56370    0.16580    0.95520    1.000
    O15      O        0.63740    0.36240    0.72130    1.000
    O16      O        0.14910    0.11320    0.30240    1.000
    O17      O        0.14610    0.64920    0.37040    1.000
    O18      O        0.60440    0.06970    0.26420    1.000
    O19      O        0.35130    0.99940    0.94910    1.000
    O20      O        0.26680    0.92740    0.35660    1.000
    O21      O        0.53140    0.82500    0.38060    1.000
    O22      O        0.50010    0.37260    0.41260    1.000
    O23      O        0.46540    0.58080    0.72720    1.000
    O24      O        0.92180    0.03960    0.31280    1.000
    O25      O        0.22630    0.45640    0.29520    1.000
    O26      O        0.65390    0.64510    0.32500    1.000
    O27      O        0.58010    0.83410    0.24260    1.000
    O28      O        0.42140    0.84340    0.94020    1.000
    O29      O        0.64510    0.23170    0.11430    1.000
    O30      O        0.26130    0.38750    0.43120    1.000
    C1       C        0.39020    0.52460    0.70240    1.000
    O31      O        0.67970    0.30890    0.55900    1.000
    O32      O        0.68710    0.14380    0.38110    1.000
    O33      O        0.76000    0.14170    0.05810    1.000
    C2       C        0.51760    0.93770    0.15300    1.000
    O34      O        0.40290    0.75040    0.13990    1.000
    O35      O        0.55960    0.29470    0.29560    1.000
    O36      O        0.18920    0.55060    0.53600    1.000
    O37      O        0.28440    0.64030    0.61380    1.000
    O38      O        0.59980    0.18750    0.61550    1.000
    C3       C        0.56960    0.07580    0.96280    1.000
    O39      O        0.84480    0.26310    0.30910    1.000
    C4       C        0.50520    0.88990    0.22210    1.000
    C5       C        0.60870    0.06140    0.08830    1.000
    C6       C        0.51460    0.34360    0.58720    1.000
    C7       C        0.46380    0.90570    0.09620    1.000
    C8       C        0.68080    0.14980    0.08520    1.000
    C9       C        0.47190    0.94990    0.03600    1.000
    O40      O        0.87520    0.73660    0.37180    1.000
    C10      C        0.49000    0.31600    0.46050    1.000
    O41      O        0.42450    0.90700    0.24980    1.000
    O42      O        0.30820    0.82350    0.05630    1.000
    C11      C        0.26770    0.56690    0.57440    1.000
    C12      C        0.53720    0.36410    0.71370    1.000
    C13      C        0.60370    0.27160    0.58840    1.000
    C14      C        0.65150    0.05630    0.21170    1.000
    C15      C        0.38590    0.81800    0.09750    1.000
    C16      C        0.46100    0.36660    0.52340    1.000
    C17      C        0.48580    0.39340    0.64330    1.000
    O43      O        0.04920    0.84460    0.30410    1.000
    C18      C        0.40870    0.46560    0.63890    1.000
    C19      C        0.41020    0.92590    0.97140    1.000
    C20      C        0.32020    0.45620    0.45280    1.000
    C21      C        0.55630    0.02770    0.03140    1.000
    O44      O        0.33530    0.71980    0.31320    1.000
    C22      C        0.37560    0.44010    0.51920    1.000
    C23      C        0.59210    0.01800    0.14890    1.000
    C24      C        0.35350    0.48860    0.57730    1.000
    Np11     Np       0.89955    0.12462    0.86814    1.000
    Np12     Np       0.77940    0.41230    0.80416    1.000
    Np13     Np       0.69840    0.71440    0.83833    1.000
    Np14     Np       0.51119    0.30322    0.87210    1.000
    Np15     Np       0.59828    0.02129    0.80194    1.000
    Np16     Np       0.19516    0.21867    0.83544    1.000
    Np17     Np       0.30141    0.90927    0.84236    1.000
    Np18     Np       0.00905    0.82377    0.83237    1.000
    Np19     Np       0.39281    0.60560    0.83497    1.000
    Np20     Np       0.08494    0.52480    0.83870    1.000
    O45      O        0.56310    0.67660    0.84800    1.000
    O46      O        0.44560    0.48040    0.86320    1.000
    O47      O        0.96220    0.94720    0.86080    1.000
    O48      O        0.95280    0.47970    0.81250    1.000
    O49      O        0.21990    0.56660    0.86210    1.000
    O50      O        0.99710    0.78130    0.95950    1.000
    O51      O        0.23290    0.08160    0.83910    1.000
    O52      O        0.97570    0.65350    0.25590    1.000
    O53      O        0.24570    0.93260    0.71300    1.000
    O54      O        0.08450    0.99450    0.41950    1.000
    O55      O        0.83470    0.75480    0.83550    1.000
    O56      O        0.83240    0.45590    0.92240    1.000
    O57      O        0.81370    0.48680    0.23360    1.000
    O58      O        0.06370    0.83420    0.45520    1.000
    O59      O        0.13740    0.63760    0.22130    1.000
    O60      O        0.64910    0.88680    0.80240    1.000
    O61      O        0.64610    0.35080    0.87040    1.000
    O62      O        0.10440    0.93030    0.76420    1.000
    O63      O        0.85130    0.00060    0.44910    1.000
    O64      O        0.76680    0.07260    0.85660    1.000
    O65      O        0.03140    0.17500    0.88060    1.000
    O66      O        0.00010    0.62740    0.91260    1.000
    O67      O        0.96540    0.41920    0.22720    1.000
    O68      O        0.42180    0.96040    0.81280    1.000
    O69      O        0.72630    0.54360    0.79520    1.000
    O70      O        0.15390    0.35490    0.82500    1.000
    O71      O        0.08010    0.16590    0.74260    1.000
    O72      O        0.92140    0.15660    0.44020    1.000
    O73      O        0.14510    0.76830    0.61430    1.000
    O74      O        0.76130    0.61250    0.93120    1.000
    C25      C        0.89020    0.47540    0.20240    1.000
    O75      O        0.17970    0.69110    0.05900    1.000
    O76      O        0.18710    0.85620    0.88110    1.000
    O77      O        0.26000    0.85830    0.55810    1.000
    C26      C        0.01760    0.06230    0.65300    1.000
    O78      O        0.90290    0.24960    0.63990    1.000
    O79      O        0.05960    0.70530    0.79560    1.000
    O80      O        0.68920    0.44940    0.03600    1.000
    O81      O        0.78440    0.35970    0.11380    1.000
    O82      O        0.09980    0.81250    0.11550    1.000
    C27      C        0.06960    0.92420    0.46280    1.000
    O83      O        0.34480    0.73690    0.80910    1.000
    C28      C        0.00520    0.11010    0.72210    1.000
    C29      C        0.10870    0.93860    0.58830    1.000
    C30      C        0.01460    0.65640    0.08720    1.000
    C31      C        0.96380    0.09430    0.59620    1.000
    C32      C        0.18080    0.85020    0.58520    1.000
    C33      C        0.97190    0.05010    0.53600    1.000
    O84      O        0.37520    0.26340    0.87180    1.000
    C34      C        0.99000    0.68400    0.96050    1.000
    O85      O        0.92450    0.09300    0.74980    1.000
    O86      O        0.80820    0.17650    0.55630    1.000
    C35      C        0.76770    0.43310    0.07440    1.000
    C36      C        0.03720    0.63590    0.21370    1.000
    C37      C        0.10370    0.72840    0.08840    1.000
    C38      C        0.15150    0.94370    0.71170    1.000
    C39      C        0.88590    0.18200    0.59750    1.000
    C40      C        0.96100    0.63340    0.02340    1.000
    C41      C        0.98580    0.60660    0.14330    1.000
    O87      O        0.54920    0.15540    0.80410    1.000
    C42      C        0.90870    0.53440    0.13890    1.000
    C43      C        0.91020    0.07410    0.47140    1.000
    C44      C        0.82020    0.54380    0.95280    1.000
    C45      C        0.05630    0.97230    0.53140    1.000
    O88      O        0.83530    0.28020    0.81320    1.000
    C46      C        0.87560    0.55990    0.01920    1.000
    C47      C        0.09210    0.98200    0.64890    1.000
    C48      C        0.85350    0.51140    0.07730    1.000
