# CIF file generated by openbabel 3.1.0, see https://openbabel.org
data_I
_chemical_name_common 'image0'
_cell_length_a 27.165
_cell_length_b 13.745
_cell_length_c 46.162
_cell_angle_alpha 90
_cell_angle_beta 90
_cell_angle_gamma 90
_space_group_name_H-M_alt 'P 1'
_space_group_name_Hall 'P 1'
loop_
    _symmetry_equiv_pos_as_xyz
    x,y,z
loop_
    _atom_site_label
    _atom_site_type_symbol
    _atom_site_fract_x
    _atom_site_fract_y
    _atom_site_fract_z
    _atom_site_occupancy
    Zn1      Zn       0.75044    0.14559    0.19256    1.000
    Zn2      Zn       0.46429    0.84555    0.40430    1.000
    Zn3      Zn       0.95086    0.85653    0.43566    1.000
    I1       I        0.69729    0.29735    0.20088    1.000
    I2       I        0.84194    0.16188    0.18123    1.000
    I3       I        0.47429    0.75766    0.45262    1.000
    I4       I        0.41986    0.77142    0.36105    1.000
    I5       I        0.01784    0.94634    0.40815    1.000
    I6       I        0.95903    0.67950    0.45157    1.000
    C1       C        0.69850    0.05680    0.24182    1.000
    H1       H        0.67080    0.07960    0.23130    1.000
    C2       C        0.69120    0.01950    0.26916    1.000
    H2       H        0.65910    0.01530    0.27710    1.000
    C3       C        0.73180    0.98790    0.28489    1.000
    C4       C        0.77790    0.99130    0.27175    1.000
    H3       H        0.80620    0.96820    0.28170    1.000
    C5       C        0.78180    0.02850    0.24424    1.000
    H4       H        0.81330    0.03020    0.23530    1.000
    C6       C        0.57250    0.88530    0.40570    1.000
    H5       H        0.56760    0.87780    0.42600    1.000
    C7       C        0.61990    0.89780    0.39561    1.000
    H6       H        0.64700    0.89840    0.40860    1.000
    C8       C        0.62710    0.90930    0.36605    1.000
    C9       C        0.58650    0.91050    0.34776    1.000
    H7       H        0.59030    0.92130    0.32760    1.000
    C10      C        0.54030    0.89570    0.35968    1.000
    H8       H        0.51260    0.89420    0.34710    1.000
    C11      C        0.89140    0.89870    0.38258    1.000
    H9       H        0.92320    0.90500    0.37430    1.000
    C12      C        0.85080    0.91300    0.36509    1.000
    H10      H        0.85480    0.92840    0.34520    1.000
    C13      C        0.80400    0.90460    0.37702    1.000
    C14      C        0.80000    0.88150    0.40594    1.000
    H11      H        0.76850    0.87570    0.41470    1.000
    C15      C        0.84220    0.86680    0.42208    1.000
    H12      H        0.83910    0.84950    0.44190    1.000
    C16      C        0.72610    0.95630    0.31553    1.000
    C17      C        0.67760    0.92260    0.35386    1.000
    C18      C        0.75980    0.91910    0.35861    1.000
    C19      C        0.60130    0.10540    0.99129    1.000
    H13      H        0.61210    0.17030    0.98820    1.000
    C20      C        0.61950    0.05480    0.01496    1.000
    H14      H        0.64250    0.08420    0.02770    1.000
    C21      C        0.60330    0.95960    0.01964    1.000
    C22      C        0.56950    0.91960    0.00059    1.000
    H15      H        0.55780    0.85520    0.00340    1.000
    C23      C        0.55310    0.97480    0.97726    1.000
    H16      H        0.52990    0.94720    0.96420    1.000
    C24      C        0.71310    0.97000    0.16159    1.000
    H17      H        0.72650    0.93720    0.17790    1.000
    C25      C        0.69240    0.91520    0.13939    1.000
    H18      H        0.69170    0.84620    0.14050    1.000
    C26      C        0.67270    0.96300    0.11558    1.000
    C27      C        0.67340    0.06440    0.11515    1.000
    H19      H        0.65960    0.09910    0.09930    1.000
    C28      C        0.69470    0.11380    0.13818    1.000
    H20      H        0.69500    0.18290    0.13790    1.000
    C29      C        0.57610    0.51210    0.06066    1.000
    H21      H        0.57160    0.46860    0.04490    1.000
    C30      C        0.59300    0.60630    0.05496    1.000
    H22      H        0.59880    0.62730    0.03560    1.000
    C31      C        0.60110    0.66860    0.07827    1.000
    C32      C        0.59160    0.63520    0.10601    1.000
    H23      H        0.59720    0.67600    0.12230    1.000
    C33      C        0.57420    0.54260    0.10965    1.000
    H24      H        0.56740    0.52050    0.12870    1.000
    C34      C        0.62010    0.90540    0.04580    1.000
    C35      C        0.65020    0.90780    0.09118    1.000
    C36      C        0.61730    0.77030    0.07351    1.000
    N1       N        0.74310    0.06240    0.22945    1.000
    N2       N        0.53290    0.88330    0.38820    1.000
    N3       N        0.88773    0.87620    0.41066    1.000
    N4       N        0.68040    0.94700    0.32578    1.000
    N5       N        0.71570    0.90790    0.37133    1.000
    N6       N        0.76726    0.94230    0.33087    1.000
    N7       N        0.56905    0.06630    0.97261    1.000
    N8       N        0.71480    0.06750    0.16079    1.000
    N9       N        0.56620    0.48120    0.08736    1.000
    N10      N        0.64290    0.95690    0.06646    1.000
    N11      N        0.63820    0.81560    0.09597    1.000
    N12      N        0.60810    0.81070    0.04746    1.000
    Zn4      Zn       0.74956    0.85441    0.69256    1.000
    Zn5      Zn       0.03571    0.15445    0.90430    1.000
    Zn6      Zn       0.54914    0.14347    0.93566    1.000
    I7       I        0.80271    0.70265    0.70088    1.000
    I8       I        0.65806    0.83812    0.68123    1.000
    I9       I        0.02571    0.24234    0.95262    1.000
    I10      I        0.08014    0.22858    0.86105    1.000
    I11      I        0.48216    0.05366    0.90815    1.000
    I12      I        0.54097    0.32050    0.95157    1.000
    C37      C        0.80150    0.94320    0.74182    1.000
    H25      H        0.82920    0.92040    0.73130    1.000
    C38      C        0.80880    0.98050    0.76916    1.000
    H26      H        0.84090    0.98470    0.77710    1.000
    C39      C        0.76820    0.01210    0.78489    1.000
    C40      C        0.72210    0.00870    0.77175    1.000
    H27      H        0.69380    0.03180    0.78170    1.000
    C41      C        0.71820    0.97150    0.74424    1.000
    H28      H        0.68670    0.96980    0.73530    1.000
    C42      C        0.92750    0.11470    0.90570    1.000
    H29      H        0.93240    0.12220    0.92600    1.000
    C43      C        0.88010    0.10220    0.89561    1.000
    H30      H        0.85300    0.10160    0.90860    1.000
    C44      C        0.87290    0.09070    0.86605    1.000
    C45      C        0.91350    0.08950    0.84776    1.000
    H31      H        0.90970    0.07870    0.82760    1.000
    C46      C        0.95970    0.10430    0.85968    1.000
    H32      H        0.98740    0.10580    0.84710    1.000
    C47      C        0.60860    0.10130    0.88258    1.000
    H33      H        0.57680    0.09500    0.87430    1.000
    C48      C        0.64920    0.08700    0.86509    1.000
    H34      H        0.64520    0.07160    0.84520    1.000
    C49      C        0.69600    0.09540    0.87702    1.000
    C50      C        0.70000    0.11850    0.90594    1.000
    H35      H        0.73150    0.12430    0.91470    1.000
    C51      C        0.65780    0.13320    0.92208    1.000
    H36      H        0.66090    0.15050    0.94190    1.000
    C52      C        0.77390    0.04370    0.81553    1.000
    C53      C        0.82240    0.07740    0.85386    1.000
    C54      C        0.74020    0.08090    0.85861    1.000
    C55      C        0.89870    0.89460    0.49129    1.000
    H37      H        0.88790    0.82970    0.48820    1.000
    C56      C        0.88050    0.94520    0.51496    1.000
    H38      H        0.85750    0.91580    0.52770    1.000
    C57      C        0.89670    0.04040    0.51964    1.000
    C58      C        0.93050    0.08040    0.50059    1.000
    H39      H        0.94220    0.14480    0.50340    1.000
    C59      C        0.94690    0.02520    0.47726    1.000
    H40      H        0.97010    0.05280    0.46420    1.000
    C60      C        0.78690    0.03000    0.66159    1.000
    H41      H        0.77350    0.06280    0.67790    1.000
    C61      C        0.80760    0.08480    0.63939    1.000
    H42      H        0.80830    0.15380    0.64050    1.000
    C62      C        0.82730    0.03700    0.61558    1.000
    C63      C        0.82660    0.93560    0.61515    1.000
    H43      H        0.84040    0.90090    0.59930    1.000
    C64      C        0.80530    0.88620    0.63818    1.000
    H44      H        0.80500    0.81710    0.63790    1.000
    C65      C        0.92390    0.48790    0.56066    1.000
    H45      H        0.92840    0.53140    0.54490    1.000
    C66      C        0.90700    0.39370    0.55496    1.000
    H46      H        0.90120    0.37270    0.53560    1.000
    C67      C        0.89890    0.33140    0.57827    1.000
    C68      C        0.90840    0.36480    0.60601    1.000
    H47      H        0.90280    0.32400    0.62230    1.000
    C69      C        0.92580    0.45740    0.60965    1.000
    H48      H        0.93260    0.47950    0.62870    1.000
    C70      C        0.87990    0.09460    0.54580    1.000
    C71      C        0.84980    0.09220    0.59118    1.000
    C72      C        0.88270    0.22970    0.57351    1.000
    N13      N        0.75690    0.93760    0.72945    1.000
    N14      N        0.96710    0.11670    0.88820    1.000
    N15      N        0.61227    0.12380    0.91066    1.000
    N16      N        0.81960    0.05300    0.82578    1.000
    N17      N        0.78430    0.09210    0.87133    1.000
    N18      N        0.73274    0.05770    0.83087    1.000
    N19      N        0.93095    0.93370    0.47261    1.000
    N20      N        0.78520    0.93250    0.66079    1.000
    N21      N        0.93380    0.51880    0.58736    1.000
    N22      N        0.85710    0.04310    0.56646    1.000
    N23      N        0.86180    0.18440    0.59597    1.000
    N24      N        0.89190    0.18930    0.54746    1.000
    Zn7      Zn       0.24956    0.64559    0.30744    1.000
    Zn8      Zn       0.53571    0.34555    0.09570    1.000
    Zn9      Zn       0.04914    0.35653    0.06434    1.000
    I13      I        0.30271    0.79735    0.29912    1.000
    I14      I        0.15806    0.66188    0.31877    1.000
    I15      I        0.52571    0.25766    0.04738    1.000
    I16      I        0.58014    0.27142    0.13895    1.000
    I17      I        0.98216    0.44634    0.09185    1.000
    I18      I        0.04097    0.17950    0.04843    1.000
    C73      C        0.30150    0.55680    0.25818    1.000
    H49      H        0.32920    0.57960    0.26870    1.000
    C74      C        0.30880    0.51950    0.23084    1.000
    H50      H        0.34090    0.51530    0.22290    1.000
    C75      C        0.26820    0.48790    0.21511    1.000
    C76      C        0.22210    0.49130    0.22825    1.000
    H51      H        0.19380    0.46820    0.21830    1.000
    C77      C        0.21820    0.52850    0.25576    1.000
    H52      H        0.18670    0.53020    0.26470    1.000
    C78      C        0.42750    0.38530    0.09430    1.000
    H53      H        0.43240    0.37780    0.07400    1.000
    C79      C        0.38010    0.39780    0.10439    1.000
    H54      H        0.35300    0.39840    0.09140    1.000
    C80      C        0.37290    0.40930    0.13395    1.000
    C81      C        0.41350    0.41050    0.15224    1.000
    H55      H        0.40970    0.42130    0.17240    1.000
    C82      C        0.45970    0.39570    0.14032    1.000
    H56      H        0.48740    0.39420    0.15290    1.000
    C83      C        0.10860    0.39870    0.11742    1.000
    H57      H        0.07680    0.40500    0.12570    1.000
    C84      C        0.14920    0.41300    0.13491    1.000
    H58      H        0.14520    0.42840    0.15480    1.000
    C85      C        0.19600    0.40460    0.12298    1.000
    C86      C        0.20000    0.38150    0.09406    1.000
    H59      H        0.23150    0.37570    0.08530    1.000
    C87      C        0.15780    0.36680    0.07792    1.000
    H60      H        0.16090    0.34950    0.05810    1.000
    C88      C        0.27390    0.45630    0.18447    1.000
    C89      C        0.32240    0.42260    0.14614    1.000
    C90      C        0.24020    0.41910    0.14139    1.000
    C91      C        0.39870    0.60540    0.50871    1.000
    H61      H        0.38790    0.67030    0.51180    1.000
    C92      C        0.38050    0.55480    0.48504    1.000
    H62      H        0.35750    0.58420    0.47230    1.000
    C93      C        0.39670    0.45960    0.48036    1.000
    C94      C        0.43050    0.41960    0.49941    1.000
    H63      H        0.44220    0.35520    0.49660    1.000
    C95      C        0.44690    0.47480    0.52274    1.000
    H64      H        0.47010    0.44720    0.53580    1.000
    C96      C        0.28690    0.47000    0.33841    1.000
    H65      H        0.27350    0.43720    0.32210    1.000
    C97      C        0.30760    0.41520    0.36061    1.000
    H66      H        0.30830    0.34620    0.35950    1.000
    C98      C        0.32730    0.46300    0.38442    1.000
    C99      C        0.32660    0.56440    0.38485    1.000
    H67      H        0.34040    0.59910    0.40070    1.000
    C100     C        0.30530    0.61380    0.36182    1.000
    H68      H        0.30500    0.68290    0.36210    1.000
    C101     C        0.42390    0.01210    0.43934    1.000
    H69      H        0.42840    0.96860    0.45510    1.000
    C102     C        0.40700    0.10630    0.44504    1.000
    H70      H        0.40120    0.12730    0.46440    1.000
    C103     C        0.39890    0.16860    0.42173    1.000
    C104     C        0.40840    0.13520    0.39399    1.000
    H71      H        0.40280    0.17600    0.37770    1.000
    C105     C        0.42580    0.04260    0.39035    1.000
    H72      H        0.43260    0.02050    0.37130    1.000
    C106     C        0.37990    0.40540    0.45420    1.000
    C107     C        0.34980    0.40780    0.40882    1.000
    C108     C        0.38270    0.27030    0.42649    1.000
    N25      N        0.25690    0.56240    0.27055    1.000
    N26      N        0.46710    0.38330    0.11180    1.000
    N27      N        0.11227    0.37620    0.08934    1.000
    N28      N        0.31960    0.44700    0.17422    1.000
    N29      N        0.28430    0.40790    0.12867    1.000
    N30      N        0.23274    0.44230    0.16913    1.000
    N31      N        0.43095    0.56630    0.52739    1.000
    N32      N        0.28520    0.56750    0.33921    1.000
    N33      N        0.43380    0.98120    0.41264    1.000
    N34      N        0.35710    0.45690    0.43354    1.000
    N35      N        0.36180    0.31560    0.40403    1.000
    N36      N        0.39190    0.31070    0.45254    1.000
    Zn10     Zn       0.25044    0.35441    0.80744    1.000
    Zn11     Zn       0.96429    0.65445    0.59570    1.000
    Zn12     Zn       0.45086    0.64347    0.56434    1.000
    I19      I        0.19729    0.20265    0.79912    1.000
    I20      I        0.34194    0.33812    0.81877    1.000
    I21      I        0.97429    0.74234    0.54738    1.000
    I22      I        0.91986    0.72858    0.63895    1.000
    I23      I        0.51784    0.55366    0.59185    1.000
    I24      I        0.45903    0.82050    0.54843    1.000
    C109     C        0.19850    0.44320    0.75818    1.000
    H73      H        0.17080    0.42040    0.76870    1.000
    C110     C        0.19120    0.48050    0.73084    1.000
    H74      H        0.15910    0.48470    0.72290    1.000
    C111     C        0.23180    0.51210    0.71511    1.000
    C112     C        0.27790    0.50870    0.72825    1.000
    H75      H        0.30620    0.53180    0.71830    1.000
    C113     C        0.28180    0.47150    0.75576    1.000
    H76      H        0.31330    0.46980    0.76470    1.000
    C114     C        0.07250    0.61470    0.59430    1.000
    H77      H        0.06760    0.62220    0.57400    1.000
    C115     C        0.11990    0.60220    0.60439    1.000
    H78      H        0.14700    0.60160    0.59140    1.000
    C116     C        0.12710    0.59070    0.63395    1.000
    C117     C        0.08650    0.58950    0.65224    1.000
    H79      H        0.09030    0.57870    0.67240    1.000
    C118     C        0.04030    0.60430    0.64032    1.000
    H80      H        0.01260    0.60580    0.65290    1.000
    C119     C        0.39140    0.60130    0.61742    1.000
    H81      H        0.42320    0.59500    0.62570    1.000
    C120     C        0.35080    0.58700    0.63491    1.000
    H82      H        0.35480    0.57160    0.65480    1.000
    C121     C        0.30400    0.59540    0.62298    1.000
    C122     C        0.30000    0.61850    0.59406    1.000
    H83      H        0.26850    0.62430    0.58530    1.000
    C123     C        0.34220    0.63320    0.57792    1.000
    H84      H        0.33910    0.65050    0.55810    1.000
    C124     C        0.22610    0.54370    0.68447    1.000
    C125     C        0.17760    0.57740    0.64614    1.000
    C126     C        0.25980    0.58090    0.64139    1.000
    C127     C        0.10130    0.39460    0.00871    1.000
    H85      H        0.11210    0.32970    0.01180    1.000
    C128     C        0.11950    0.44520    0.98504    1.000
    H86      H        0.14250    0.41580    0.97230    1.000
    C129     C        0.10330    0.54040    0.98036    1.000
    C130     C        0.06950    0.58040    0.99941    1.000
    H87      H        0.05780    0.64480    0.99660    1.000
    C131     C        0.05310    0.52520    0.02274    1.000
    H88      H        0.02990    0.55280    0.03580    1.000
    C132     C        0.21310    0.53000    0.83841    1.000
    H89      H        0.22650    0.56280    0.82210    1.000
    C133     C        0.19240    0.58480    0.86061    1.000
    H90      H        0.19170    0.65380    0.85950    1.000
    C134     C        0.17270    0.53700    0.88442    1.000
    C135     C        0.17340    0.43560    0.88485    1.000
    H91      H        0.15960    0.40090    0.90070    1.000
    C136     C        0.19470    0.38620    0.86182    1.000
    H92      H        0.19500    0.31710    0.86210    1.000
    C137     C        0.07610    0.98790    0.93934    1.000
    H93      H        0.07160    0.03140    0.95510    1.000
    C138     C        0.09300    0.89370    0.94504    1.000
    H94      H        0.09880    0.87270    0.96440    1.000
    C139     C        0.10110    0.83140    0.92173    1.000
    C140     C        0.09160    0.86480    0.89399    1.000
    H95      H        0.09720    0.82400    0.87770    1.000
    C141     C        0.07420    0.95740    0.89035    1.000
    H96      H        0.06740    0.97950    0.87130    1.000
    C142     C        0.12010    0.59460    0.95420    1.000
    C143     C        0.15020    0.59220    0.90882    1.000
    C144     C        0.11730    0.72970    0.92649    1.000
    N37      N        0.24310    0.43760    0.77055    1.000
    N38      N        0.03290    0.61670    0.61180    1.000
    N39      N        0.38773    0.62380    0.58934    1.000
    N40      N        0.18040    0.55300    0.67422    1.000
    N41      N        0.21570    0.59210    0.62867    1.000
    N42      N        0.26726    0.55770    0.66913    1.000
    N43      N        0.06905    0.43370    0.02739    1.000
    N44      N        0.21480    0.43250    0.83921    1.000
    N45      N        0.06620    0.01880    0.91264    1.000
    N46      N        0.14290    0.54310    0.93354    1.000
    N47      N        0.13820    0.68440    0.90403    1.000
    N48      N        0.10810    0.68930    0.95254    1.000
    Zn13     Zn       0.24956    0.85441    0.80744    1.000
    Zn14     Zn       0.53571    0.15445    0.59570    1.000
    Zn15     Zn       0.04914    0.14347    0.56434    1.000
    I25      I        0.30271    0.70265    0.79912    1.000
    I26      I        0.15806    0.83812    0.81877    1.000
    I27      I        0.52571    0.24234    0.54738    1.000
    I28      I        0.58014    0.22858    0.63895    1.000
    I29      I        0.98216    0.05366    0.59185    1.000
    I30      I        0.04097    0.32050    0.54843    1.000
    C145     C        0.30150    0.94320    0.75818    1.000
    H97      H        0.32920    0.92040    0.76870    1.000
    C146     C        0.30880    0.98050    0.73084    1.000
    H98      H        0.34090    0.98470    0.72290    1.000
    C147     C        0.26820    0.01210    0.71511    1.000
    C148     C        0.22210    0.00870    0.72825    1.000
    H99      H        0.19380    0.03180    0.71830    1.000
    C149     C        0.21820    0.97150    0.75576    1.000
    H100     H        0.18670    0.96980    0.76470    1.000
    C150     C        0.42750    0.11470    0.59430    1.000
    H101     H        0.43240    0.12220    0.57400    1.000
    C151     C        0.38010    0.10220    0.60439    1.000
    H102     H        0.35300    0.10160    0.59140    1.000
    C152     C        0.37290    0.09070    0.63395    1.000
    C153     C        0.41350    0.08950    0.65224    1.000
    H103     H        0.40970    0.07870    0.67240    1.000
    C154     C        0.45970    0.10430    0.64032    1.000
    H104     H        0.48740    0.10580    0.65290    1.000
    C155     C        0.10860    0.10130    0.61742    1.000
    H105     H        0.07680    0.09500    0.62570    1.000
    C156     C        0.14920    0.08700    0.63491    1.000
    H106     H        0.14520    0.07160    0.65480    1.000
    C157     C        0.19600    0.09540    0.62298    1.000
    C158     C        0.20000    0.11850    0.59406    1.000
    H107     H        0.23150    0.12430    0.58530    1.000
    C159     C        0.15780    0.13320    0.57792    1.000
    H108     H        0.16090    0.15050    0.55810    1.000
    C160     C        0.27390    0.04370    0.68447    1.000
    C161     C        0.32240    0.07740    0.64614    1.000
    C162     C        0.24020    0.08090    0.64139    1.000
    C163     C        0.39870    0.89460    0.00871    1.000
    H109     H        0.38790    0.82970    0.01180    1.000
    C164     C        0.38050    0.94520    0.98504    1.000
    H110     H        0.35750    0.91580    0.97230    1.000
    C165     C        0.39670    0.04040    0.98036    1.000
    C166     C        0.43050    0.08040    0.99941    1.000
    H111     H        0.44220    0.14480    0.99660    1.000
    C167     C        0.44690    0.02520    0.02274    1.000
    H112     H        0.47010    0.05280    0.03580    1.000
    C168     C        0.28690    0.03000    0.83841    1.000
    H113     H        0.27350    0.06280    0.82210    1.000
    C169     C        0.30760    0.08480    0.86061    1.000
    H114     H        0.30830    0.15380    0.85950    1.000
    C170     C        0.32730    0.03700    0.88442    1.000
    C171     C        0.32660    0.93560    0.88485    1.000
    H115     H        0.34040    0.90090    0.90070    1.000
    C172     C        0.30530    0.88620    0.86182    1.000
    H116     H        0.30500    0.81710    0.86210    1.000
    C173     C        0.42390    0.48790    0.93934    1.000
    H117     H        0.42840    0.53140    0.95510    1.000
    C174     C        0.40700    0.39370    0.94504    1.000
    H118     H        0.40120    0.37270    0.96440    1.000
    C175     C        0.39890    0.33140    0.92173    1.000
    C176     C        0.40840    0.36480    0.89399    1.000
    H119     H        0.40280    0.32400    0.87770    1.000
    C177     C        0.42580    0.45740    0.89035    1.000
    H120     H        0.43260    0.47950    0.87130    1.000
    C178     C        0.37990    0.09460    0.95420    1.000
    C179     C        0.34980    0.09220    0.90882    1.000
    C180     C        0.38270    0.22970    0.92649    1.000
    N49      N        0.25690    0.93760    0.77055    1.000
    N50      N        0.46710    0.11670    0.61180    1.000
    N51      N        0.11227    0.12380    0.58934    1.000
    N52      N        0.31960    0.05300    0.67422    1.000
    N53      N        0.28430    0.09210    0.62867    1.000
    N54      N        0.23274    0.05770    0.66913    1.000
    N55      N        0.43095    0.93370    0.02739    1.000
    N56      N        0.28520    0.93250    0.83921    1.000
    N57      N        0.43380    0.51880    0.91264    1.000
    N58      N        0.35710    0.04310    0.93354    1.000
    N59      N        0.36180    0.18440    0.90403    1.000
    N60      N        0.39190    0.18930    0.95254    1.000
    Zn16     Zn       0.25044    0.14559    0.30744    1.000
    Zn17     Zn       0.96429    0.84555    0.09570    1.000
    Zn18     Zn       0.45086    0.85653    0.06434    1.000
    I31      I        0.19729    0.29735    0.29912    1.000
    I32      I        0.34194    0.16188    0.31877    1.000
    I33      I        0.97429    0.75766    0.04738    1.000
    I34      I        0.91986    0.77142    0.13895    1.000
    I35      I        0.51784    0.94634    0.09185    1.000
    I36      I        0.45903    0.67950    0.04843    1.000
    C181     C        0.19850    0.05680    0.25818    1.000
    H121     H        0.17080    0.07960    0.26870    1.000
    C182     C        0.19120    0.01950    0.23084    1.000
    H122     H        0.15910    0.01530    0.22290    1.000
    C183     C        0.23180    0.98790    0.21511    1.000
    C184     C        0.27790    0.99130    0.22825    1.000
    H123     H        0.30620    0.96820    0.21830    1.000
    C185     C        0.28180    0.02850    0.25576    1.000
    H124     H        0.31330    0.03020    0.26470    1.000
    C186     C        0.07250    0.88530    0.09430    1.000
    H125     H        0.06760    0.87780    0.07400    1.000
    C187     C        0.11990    0.89780    0.10439    1.000
    H126     H        0.14700    0.89840    0.09140    1.000
    C188     C        0.12710    0.90930    0.13395    1.000
    C189     C        0.08650    0.91050    0.15224    1.000
    H127     H        0.09030    0.92130    0.17240    1.000
    C190     C        0.04030    0.89570    0.14032    1.000
    H128     H        0.01260    0.89420    0.15290    1.000
    C191     C        0.39140    0.89870    0.11742    1.000
    H129     H        0.42320    0.90500    0.12570    1.000
    C192     C        0.35080    0.91300    0.13491    1.000
    H130     H        0.35480    0.92840    0.15480    1.000
    C193     C        0.30400    0.90460    0.12298    1.000
    C194     C        0.30000    0.88150    0.09406    1.000
    H131     H        0.26850    0.87570    0.08530    1.000
    C195     C        0.34220    0.86680    0.07792    1.000
    H132     H        0.33910    0.84950    0.05810    1.000
    C196     C        0.22610    0.95630    0.18447    1.000
    C197     C        0.17760    0.92260    0.14614    1.000
    C198     C        0.25980    0.91910    0.14139    1.000
    C199     C        0.10130    0.10540    0.50871    1.000
    H133     H        0.11210    0.17030    0.51180    1.000
    C200     C        0.11950    0.05480    0.48504    1.000
    H134     H        0.14250    0.08420    0.47230    1.000
    C201     C        0.10330    0.95960    0.48036    1.000
    C202     C        0.06950    0.91960    0.49941    1.000
    H135     H        0.05780    0.85520    0.49660    1.000
    C203     C        0.05310    0.97480    0.52274    1.000
    H136     H        0.02990    0.94720    0.53580    1.000
    C204     C        0.21310    0.97000    0.33841    1.000
    H137     H        0.22650    0.93720    0.32210    1.000
    C205     C        0.19240    0.91520    0.36061    1.000
    H138     H        0.19170    0.84620    0.35950    1.000
    C206     C        0.17270    0.96300    0.38442    1.000
    C207     C        0.17340    0.06440    0.38485    1.000
    H139     H        0.15960    0.09910    0.40070    1.000
    C208     C        0.19470    0.11380    0.36182    1.000
    H140     H        0.19500    0.18290    0.36210    1.000
    C209     C        0.07610    0.51210    0.43934    1.000
    H141     H        0.07160    0.46860    0.45510    1.000
    C210     C        0.09300    0.60630    0.44504    1.000
    H142     H        0.09880    0.62730    0.46440    1.000
    C211     C        0.10110    0.66860    0.42173    1.000
    C212     C        0.09160    0.63520    0.39399    1.000
    H143     H        0.09720    0.67600    0.37770    1.000
    C213     C        0.07420    0.54260    0.39035    1.000
    H144     H        0.06740    0.52050    0.37130    1.000
    C214     C        0.12010    0.90540    0.45420    1.000
    C215     C        0.15020    0.90780    0.40882    1.000
    C216     C        0.11730    0.77030    0.42649    1.000
    N61      N        0.24310    0.06240    0.27055    1.000
    N62      N        0.03290    0.88330    0.11180    1.000
    N63      N        0.38773    0.87620    0.08934    1.000
    N64      N        0.18040    0.94700    0.17422    1.000
    N65      N        0.21570    0.90790    0.12867    1.000
    N66      N        0.26726    0.94230    0.16913    1.000
    N67      N        0.06905    0.06630    0.52739    1.000
    N68      N        0.21480    0.06750    0.33921    1.000
    N69      N        0.06620    0.48120    0.41264    1.000
    N70      N        0.14290    0.95690    0.43354    1.000
    N71      N        0.13820    0.81560    0.40403    1.000
    N72      N        0.10810    0.81070    0.45254    1.000
    Zn19     Zn       0.75044    0.35441    0.69256    1.000
    Zn20     Zn       0.46429    0.65445    0.90430    1.000
    Zn21     Zn       0.95086    0.64347    0.93566    1.000
    I37      I        0.69729    0.20265    0.70088    1.000
    I38      I        0.84194    0.33812    0.68123    1.000
    I39      I        0.47429    0.74234    0.95262    1.000
    I40      I        0.41986    0.72858    0.86105    1.000
    I41      I        0.01784    0.55366    0.90815    1.000
    I42      I        0.95903    0.82050    0.95157    1.000
    C217     C        0.69850    0.44320    0.74182    1.000
    H145     H        0.67080    0.42040    0.73130    1.000
    C218     C        0.69120    0.48050    0.76916    1.000
    H146     H        0.65910    0.48470    0.77710    1.000
    C219     C        0.73180    0.51210    0.78489    1.000
    C220     C        0.77790    0.50870    0.77175    1.000
    H147     H        0.80620    0.53180    0.78170    1.000
    C221     C        0.78180    0.47150    0.74424    1.000
    H148     H        0.81330    0.46980    0.73530    1.000
    C222     C        0.57250    0.61470    0.90570    1.000
    H149     H        0.56760    0.62220    0.92600    1.000
    C223     C        0.61990    0.60220    0.89561    1.000
    H150     H        0.64700    0.60160    0.90860    1.000
    C224     C        0.62710    0.59070    0.86605    1.000
    C225     C        0.58650    0.58950    0.84776    1.000
    H151     H        0.59030    0.57870    0.82760    1.000
    C226     C        0.54030    0.60430    0.85968    1.000
    H152     H        0.51260    0.60580    0.84710    1.000
    C227     C        0.89140    0.60130    0.88258    1.000
    H153     H        0.92320    0.59500    0.87430    1.000
    C228     C        0.85080    0.58700    0.86509    1.000
    H154     H        0.85480    0.57160    0.84520    1.000
    C229     C        0.80400    0.59540    0.87702    1.000
    C230     C        0.80000    0.61850    0.90594    1.000
    H155     H        0.76850    0.62430    0.91470    1.000
    C231     C        0.84220    0.63320    0.92208    1.000
    H156     H        0.83910    0.65050    0.94190    1.000
    C232     C        0.72610    0.54370    0.81553    1.000
    C233     C        0.67760    0.57740    0.85386    1.000
    C234     C        0.75980    0.58090    0.85861    1.000
    C235     C        0.60130    0.39460    0.49129    1.000
    H157     H        0.61210    0.32970    0.48820    1.000
    C236     C        0.61950    0.44520    0.51496    1.000
    H158     H        0.64250    0.41580    0.52770    1.000
    C237     C        0.60330    0.54040    0.51964    1.000
    C238     C        0.56950    0.58040    0.50059    1.000
    H159     H        0.55780    0.64480    0.50340    1.000
    C239     C        0.55310    0.52520    0.47726    1.000
    H160     H        0.52990    0.55280    0.46420    1.000
    C240     C        0.71310    0.53000    0.66159    1.000
    H161     H        0.72650    0.56280    0.67790    1.000
    C241     C        0.69240    0.58480    0.63939    1.000
    H162     H        0.69170    0.65380    0.64050    1.000
    C242     C        0.67270    0.53700    0.61558    1.000
    C243     C        0.67340    0.43560    0.61515    1.000
    H163     H        0.65960    0.40090    0.59930    1.000
    C244     C        0.69470    0.38620    0.63818    1.000
    H164     H        0.69500    0.31710    0.63790    1.000
    C245     C        0.57610    0.98790    0.56066    1.000
    H165     H        0.57160    0.03140    0.54490    1.000
    C246     C        0.59300    0.89370    0.55496    1.000
    H166     H        0.59880    0.87270    0.53560    1.000
    C247     C        0.60110    0.83140    0.57827    1.000
    C248     C        0.59160    0.86480    0.60601    1.000
    H167     H        0.59720    0.82400    0.62230    1.000
    C249     C        0.57420    0.95740    0.60965    1.000
    H168     H        0.56740    0.97950    0.62870    1.000
    C250     C        0.62010    0.59460    0.54580    1.000
    C251     C        0.65020    0.59220    0.59118    1.000
    C252     C        0.61730    0.72970    0.57351    1.000
    N73      N        0.74310    0.43760    0.72945    1.000
    N74      N        0.53290    0.61670    0.88820    1.000
    N75      N        0.88773    0.62380    0.91066    1.000
    N76      N        0.68040    0.55300    0.82578    1.000
    N77      N        0.71570    0.59210    0.87133    1.000
    N78      N        0.76726    0.55770    0.83087    1.000
    N79      N        0.56905    0.43370    0.47261    1.000
    N80      N        0.71480    0.43250    0.66079    1.000
    N81      N        0.56620    0.01880    0.58736    1.000
    N82      N        0.64290    0.54310    0.56646    1.000
    N83      N        0.63820    0.68440    0.59597    1.000
    N84      N        0.60810    0.68930    0.54746    1.000
    Zn22     Zn       0.74956    0.64559    0.19256    1.000
    Zn23     Zn       0.03571    0.34555    0.40430    1.000
    Zn24     Zn       0.54914    0.35653    0.43566    1.000
    I43      I        0.80271    0.79735    0.20088    1.000
    I44      I        0.65806    0.66188    0.18123    1.000
    I45      I        0.02571    0.25766    0.45262    1.000
    I46      I        0.08014    0.27142    0.36105    1.000
    I47      I        0.48216    0.44634    0.40815    1.000
    I48      I        0.54097    0.17950    0.45157    1.000
    C253     C        0.80150    0.55680    0.24182    1.000
    H169     H        0.82920    0.57960    0.23130    1.000
    C254     C        0.80880    0.51950    0.26916    1.000
    H170     H        0.84090    0.51530    0.27710    1.000
    C255     C        0.76820    0.48790    0.28489    1.000
    C256     C        0.72210    0.49130    0.27175    1.000
    H171     H        0.69380    0.46820    0.28170    1.000
    C257     C        0.71820    0.52850    0.24424    1.000
    H172     H        0.68670    0.53020    0.23530    1.000
    C258     C        0.92750    0.38530    0.40570    1.000
    H173     H        0.93240    0.37780    0.42600    1.000
    C259     C        0.88010    0.39780    0.39561    1.000
    H174     H        0.85300    0.39840    0.40860    1.000
    C260     C        0.87290    0.40930    0.36605    1.000
    C261     C        0.91350    0.41050    0.34776    1.000
    H175     H        0.90970    0.42130    0.32760    1.000
    C262     C        0.95970    0.39570    0.35968    1.000
    H176     H        0.98740    0.39420    0.34710    1.000
    C263     C        0.60860    0.39870    0.38258    1.000
    H177     H        0.57680    0.40500    0.37430    1.000
    C264     C        0.64920    0.41300    0.36509    1.000
    H178     H        0.64520    0.42840    0.34520    1.000
    C265     C        0.69600    0.40460    0.37702    1.000
    C266     C        0.70000    0.38150    0.40594    1.000
    H179     H        0.73150    0.37570    0.41470    1.000
    C267     C        0.65780    0.36680    0.42208    1.000
    H180     H        0.66090    0.34950    0.44190    1.000
    C268     C        0.77390    0.45630    0.31553    1.000
    C269     C        0.82240    0.42260    0.35386    1.000
    C270     C        0.74020    0.41910    0.35861    1.000
    C271     C        0.89870    0.60540    0.99129    1.000
    H181     H        0.88790    0.67030    0.98820    1.000
    C272     C        0.88050    0.55480    0.01496    1.000
    H182     H        0.85750    0.58420    0.02770    1.000
    C273     C        0.89670    0.45960    0.01964    1.000
    C274     C        0.93050    0.41960    0.00059    1.000
    H183     H        0.94220    0.35520    0.00340    1.000
    C275     C        0.94690    0.47480    0.97726    1.000
    H184     H        0.97010    0.44720    0.96420    1.000
    C276     C        0.78690    0.47000    0.16159    1.000
    H185     H        0.77350    0.43720    0.17790    1.000
    C277     C        0.80760    0.41520    0.13939    1.000
    H186     H        0.80830    0.34620    0.14050    1.000
    C278     C        0.82730    0.46300    0.11558    1.000
    C279     C        0.82660    0.56440    0.11515    1.000
    H187     H        0.84040    0.59910    0.09930    1.000
    C280     C        0.80530    0.61380    0.13818    1.000
    H188     H        0.80500    0.68290    0.13790    1.000
    C281     C        0.92390    0.01210    0.06066    1.000
    H189     H        0.92840    0.96860    0.04490    1.000
    C282     C        0.90700    0.10630    0.05496    1.000
    H190     H        0.90120    0.12730    0.03560    1.000
    C283     C        0.89890    0.16860    0.07827    1.000
    C284     C        0.90840    0.13520    0.10601    1.000
    H191     H        0.90280    0.17600    0.12230    1.000
    C285     C        0.92580    0.04260    0.10965    1.000
    H192     H        0.93260    0.02050    0.12870    1.000
    C286     C        0.87990    0.40540    0.04580    1.000
    C287     C        0.84980    0.40780    0.09118    1.000
    C288     C        0.88270    0.27030    0.07351    1.000
    N85      N        0.75690    0.56240    0.22945    1.000
    N86      N        0.96710    0.38330    0.38820    1.000
    N87      N        0.61227    0.37620    0.41066    1.000
    N88      N        0.81960    0.44700    0.32578    1.000
    N89      N        0.78430    0.40790    0.37133    1.000
    N90      N        0.73274    0.44230    0.33087    1.000
    N91      N        0.93095    0.56630    0.97261    1.000
    N92      N        0.78520    0.56750    0.16079    1.000
    N93      N        0.93380    0.98120    0.08736    1.000
    N94      N        0.85710    0.45690    0.06646    1.000
    N95      N        0.86180    0.31560    0.09597    1.000
    N96      N        0.89190    0.31070    0.04746    1.000
