# CIF file generated by openbabel 3.1.0, see https://openbabel.org
data_I
_chemical_name_common 'image0'
_cell_length_a 30.573
_cell_length_b 15.733
_cell_length_c 22.013
_cell_angle_alpha 90
_cell_angle_beta 132.965
_cell_angle_gamma 90
_space_group_name_H-M_alt 'P 1'
_space_group_name_Hall 'P 1'
loop_
    _symmetry_equiv_pos_as_xyz
    x,y,z
loop_
    _atom_site_label
    _atom_site_type_symbol
    _atom_site_fract_x
    _atom_site_fract_y
    _atom_site_fract_z
    _atom_site_occupancy
    N1       N        0.63350    0.26530    0.53520    1.000
    N2       N        0.66190    0.99820    0.25840    1.000
    Nd1      Nd       0.66918    0.12782    0.51468    1.000
    Nd2      Nd       0.88996    0.36398    0.82563    1.000
    O1       O        0.74770    0.23000    0.62830    1.000
    O2       O        0.77690    0.34810    0.70390    1.000
    O3       O        0.56030    0.14390    0.43080    1.000
    O4       O        0.48060    0.21600    0.38700    1.000
    O5       O        0.62290    0.11560    0.29630    1.000
    O6       O        0.65890    0.04720    0.41100    1.000
    O7       O        0.63420    0.03000    0.11830    1.000
    O8       O        0.67260    0.90430    0.12500    1.000
    C1       C        0.73860    0.29890    0.64760    1.000
    C2       C        0.67340    0.32270    0.59380    1.000
    C3       C        0.65490    0.39800    0.60420    1.000
    H1       H        0.68270    0.43750    0.64430    1.000
    C4       C        0.59410    0.41250    0.55330    1.000
    H2       H        0.58060    0.46240    0.55850    1.000
    C5       C        0.55330    0.35130    0.49410    1.000
    H3       H        0.51230    0.35950    0.45990    1.000
    C6       C        0.57550    0.27800    0.48770    1.000
    C7       C        0.53510    0.20680    0.42960    1.000
    C8       C        0.65050    0.05350    0.34720    1.000
    C9       C        0.67450    0.98780    0.32850    1.000
    C10      C        0.71340    0.92410    0.38310    1.000
    H4       H        0.72150    0.91610    0.43180    1.000
    C11      C        0.74020    0.87270    0.36590    1.000
    H5       H        0.76760    0.83140    0.40360    1.000
    C12      C        0.72570    0.88330    0.29230    1.000
    H6       H        0.74320    0.84990    0.27890    1.000
    C13      C        0.68410    0.94550    0.23810    1.000
    C14      C        0.66150    0.96080    0.15330    1.000
    N3       N        0.13350    0.76530    0.53520    1.000
    N4       N        0.16190    0.49820    0.25840    1.000
    Nd3      Nd       0.16918    0.62782    0.51468    1.000
    Nd4      Nd       0.38996    0.86398    0.82563    1.000
    O9       O        0.24770    0.73000    0.62830    1.000
    O10      O        0.27690    0.84810    0.70390    1.000
    O11      O        0.06030    0.64390    0.43080    1.000
    O12      O        0.98060    0.71600    0.38700    1.000
    O13      O        0.12290    0.61560    0.29630    1.000
    O14      O        0.15890    0.54720    0.41100    1.000
    O15      O        0.13420    0.53000    0.11830    1.000
    O16      O        0.17260    0.40430    0.12500    1.000
    C15      C        0.23860    0.79890    0.64760    1.000
    C16      C        0.17340    0.82270    0.59380    1.000
    C17      C        0.15490    0.89800    0.60420    1.000
    H7       H        0.18270    0.93750    0.64430    1.000
    C18      C        0.09410    0.91250    0.55330    1.000
    H8       H        0.08060    0.96240    0.55850    1.000
    C19      C        0.05330    0.85130    0.49410    1.000
    H9       H        0.01230    0.85950    0.45990    1.000
    C20      C        0.07550    0.77800    0.48770    1.000
    C21      C        0.03510    0.70680    0.42960    1.000
    C22      C        0.15050    0.55350    0.34720    1.000
    C23      C        0.17450    0.48780    0.32850    1.000
    C24      C        0.21340    0.42410    0.38310    1.000
    H10      H        0.22150    0.41610    0.43180    1.000
    C25      C        0.24020    0.37270    0.36590    1.000
    H11      H        0.26760    0.33140    0.40360    1.000
    C26      C        0.22570    0.38330    0.29230    1.000
    H12      H        0.24320    0.34990    0.27890    1.000
    C27      C        0.18410    0.44550    0.23810    1.000
    C28      C        0.16150    0.46080    0.15330    1.000
    N5       N        0.36650    0.26530    0.96480    1.000
    N6       N        0.33810    0.99820    0.24160    1.000
    Nd5      Nd       0.33082    0.12782    0.98532    1.000
    Nd6      Nd       0.11004    0.36398    0.67437    1.000
    O17      O        0.25230    0.23000    0.87170    1.000
    O18      O        0.22310    0.34810    0.79610    1.000
    O19      O        0.43970    0.14390    0.06920    1.000
    O20      O        0.51940    0.21600    0.11300    1.000
    O21      O        0.37710    0.11560    0.20370    1.000
    O22      O        0.34110    0.04720    0.08900    1.000
    O23      O        0.36580    0.03000    0.38170    1.000
    O24      O        0.32740    0.90430    0.37500    1.000
    C29      C        0.26140    0.29890    0.85240    1.000
    C30      C        0.32660    0.32270    0.90620    1.000
    C31      C        0.34510    0.39800    0.89580    1.000
    H13      H        0.31730    0.43750    0.85570    1.000
    C32      C        0.40590    0.41250    0.94670    1.000
    H14      H        0.41940    0.46240    0.94150    1.000
    C33      C        0.44670    0.35130    0.00590    1.000
    H15      H        0.48770    0.35950    0.04010    1.000
    C34      C        0.42450    0.27800    0.01230    1.000
    C35      C        0.46490    0.20680    0.07040    1.000
    C36      C        0.34950    0.05350    0.15280    1.000
    C37      C        0.32550    0.98780    0.17150    1.000
    C38      C        0.28660    0.92410    0.11690    1.000
    H16      H        0.27850    0.91610    0.06820    1.000
    C39      C        0.25980    0.87270    0.13410    1.000
    H17      H        0.23240    0.83140    0.09640    1.000
    C40      C        0.27430    0.88330    0.20770    1.000
    H18      H        0.25680    0.84990    0.22110    1.000
    C41      C        0.31590    0.94550    0.26190    1.000
    C42      C        0.33850    0.96080    0.34670    1.000
    N7       N        0.86650    0.76530    0.96480    1.000
    N8       N        0.83810    0.49820    0.24160    1.000
    Nd7      Nd       0.83082    0.62782    0.98532    1.000
    Nd8      Nd       0.61004    0.86398    0.67437    1.000
    O25      O        0.75230    0.73000    0.87170    1.000
    O26      O        0.72310    0.84810    0.79610    1.000
    O27      O        0.93970    0.64390    0.06920    1.000
    O28      O        0.01940    0.71600    0.11300    1.000
    O29      O        0.87710    0.61560    0.20370    1.000
    O30      O        0.84110    0.54720    0.08900    1.000
    O31      O        0.86580    0.53000    0.38170    1.000
    O32      O        0.82740    0.40430    0.37500    1.000
    C43      C        0.76140    0.79890    0.85240    1.000
    C44      C        0.82660    0.82270    0.90620    1.000
    C45      C        0.84510    0.89800    0.89580    1.000
    H19      H        0.81730    0.93750    0.85570    1.000
    C46      C        0.90590    0.91250    0.94670    1.000
    H20      H        0.91940    0.96240    0.94150    1.000
    C47      C        0.94670    0.85130    0.00590    1.000
    H21      H        0.98770    0.85950    0.04010    1.000
    C48      C        0.92450    0.77800    0.01230    1.000
    C49      C        0.96490    0.70680    0.07040    1.000
    C50      C        0.84950    0.55350    0.15280    1.000
    C51      C        0.82550    0.48780    0.17150    1.000
    C52      C        0.78660    0.42410    0.11690    1.000
    H22      H        0.77850    0.41610    0.06820    1.000
    C53      C        0.75980    0.37270    0.13410    1.000
    H23      H        0.73240    0.33140    0.09640    1.000
    C54      C        0.77430    0.38330    0.20770    1.000
    H24      H        0.75680    0.34990    0.22110    1.000
    C55      C        0.81590    0.44550    0.26190    1.000
    C56      C        0.83850    0.46080    0.34670    1.000
    N9       N        0.36650    0.73470    0.46480    1.000
    N10      N        0.33810    0.00180    0.74160    1.000
    Nd9      Nd       0.33082    0.87218    0.48532    1.000
    Nd10     Nd       0.11004    0.63602    0.17437    1.000
    O33      O        0.25230    0.77000    0.37170    1.000
    O34      O        0.22310    0.65190    0.29610    1.000
    O35      O        0.43970    0.85610    0.56920    1.000
    O36      O        0.51940    0.78400    0.61300    1.000
    O37      O        0.37710    0.88440    0.70370    1.000
    O38      O        0.34110    0.95280    0.58900    1.000
    O39      O        0.36580    0.97000    0.88170    1.000
    O40      O        0.32740    0.09570    0.87500    1.000
    C57      C        0.26140    0.70110    0.35240    1.000
    C58      C        0.32660    0.67730    0.40620    1.000
    C59      C        0.34510    0.60200    0.39580    1.000
    H25      H        0.31730    0.56250    0.35570    1.000
    C60      C        0.40590    0.58750    0.44670    1.000
    H26      H        0.41940    0.53760    0.44150    1.000
    C61      C        0.44670    0.64870    0.50590    1.000
    H27      H        0.48770    0.64050    0.54010    1.000
    C62      C        0.42450    0.72200    0.51230    1.000
    C63      C        0.46490    0.79320    0.57040    1.000
    C64      C        0.34950    0.94650    0.65280    1.000
    C65      C        0.32550    0.01220    0.67150    1.000
    C66      C        0.28660    0.07590    0.61690    1.000
    H28      H        0.27850    0.08390    0.56820    1.000
    C67      C        0.25980    0.12730    0.63410    1.000
    H29      H        0.23240    0.16860    0.59640    1.000
    C68      C        0.27430    0.11670    0.70770    1.000
    H30      H        0.25680    0.15010    0.72110    1.000
    C69      C        0.31590    0.05450    0.76190    1.000
    C70      C        0.33850    0.03920    0.84670    1.000
    N11      N        0.86650    0.23470    0.46480    1.000
    N12      N        0.83810    0.50180    0.74160    1.000
    Nd11     Nd       0.83082    0.37218    0.48532    1.000
    Nd12     Nd       0.61004    0.13602    0.17437    1.000
    O41      O        0.75230    0.27000    0.37170    1.000
    O42      O        0.72310    0.15190    0.29610    1.000
    O43      O        0.93970    0.35610    0.56920    1.000
    O44      O        0.01940    0.28400    0.61300    1.000
    O45      O        0.87710    0.38440    0.70370    1.000
    O46      O        0.84110    0.45280    0.58900    1.000
    O47      O        0.86580    0.47000    0.88170    1.000
    O48      O        0.82740    0.59570    0.87500    1.000
    C71      C        0.76140    0.20110    0.35240    1.000
    C72      C        0.82660    0.17730    0.40620    1.000
    C73      C        0.84510    0.10200    0.39580    1.000
    H31      H        0.81730    0.06250    0.35570    1.000
    C74      C        0.90590    0.08750    0.44670    1.000
    H32      H        0.91940    0.03760    0.44150    1.000
    C75      C        0.94670    0.14870    0.50590    1.000
    H33      H        0.98770    0.14050    0.54010    1.000
    C76      C        0.92450    0.22200    0.51230    1.000
    C77      C        0.96490    0.29320    0.57040    1.000
    C78      C        0.84950    0.44650    0.65280    1.000
    C79      C        0.82550    0.51220    0.67150    1.000
    C80      C        0.78660    0.57590    0.61690    1.000
    H34      H        0.77850    0.58390    0.56820    1.000
    C81      C        0.75980    0.62730    0.63410    1.000
    H35      H        0.73240    0.66860    0.59640    1.000
    C82      C        0.77430    0.61670    0.70770    1.000
    H36      H        0.75680    0.65010    0.72110    1.000
    C83      C        0.81590    0.55450    0.76190    1.000
    C84      C        0.83850    0.53920    0.84670    1.000
    N13      N        0.63350    0.73470    0.03520    1.000
    N14      N        0.66190    0.00180    0.75840    1.000
    Nd13     Nd       0.66918    0.87218    0.01468    1.000
    Nd14     Nd       0.88996    0.63602    0.32563    1.000
    O49      O        0.74770    0.77000    0.12830    1.000
    O50      O        0.77690    0.65190    0.20390    1.000
    O51      O        0.56030    0.85610    0.93080    1.000
    O52      O        0.48060    0.78400    0.88700    1.000
    O53      O        0.62290    0.88440    0.79630    1.000
    O54      O        0.65890    0.95280    0.91100    1.000
    O55      O        0.63420    0.97000    0.61830    1.000
    O56      O        0.67260    0.09570    0.62500    1.000
    C85      C        0.73860    0.70110    0.14760    1.000
    C86      C        0.67340    0.67730    0.09380    1.000
    C87      C        0.65490    0.60200    0.10420    1.000
    H37      H        0.68270    0.56250    0.14430    1.000
    C88      C        0.59410    0.58750    0.05330    1.000
    H38      H        0.58060    0.53760    0.05850    1.000
    C89      C        0.55330    0.64870    0.99410    1.000
    H39      H        0.51230    0.64050    0.95990    1.000
    C90      C        0.57550    0.72200    0.98770    1.000
    C91      C        0.53510    0.79320    0.92960    1.000
    C92      C        0.65050    0.94650    0.84720    1.000
    C93      C        0.67450    0.01220    0.82850    1.000
    C94      C        0.71340    0.07590    0.88310    1.000
    H40      H        0.72150    0.08390    0.93180    1.000
    C95      C        0.74020    0.12730    0.86590    1.000
    H41      H        0.76760    0.16860    0.90360    1.000
    C96      C        0.72570    0.11670    0.79230    1.000
    H42      H        0.74320    0.15010    0.77890    1.000
    C97      C        0.68410    0.05450    0.73810    1.000
    C98      C        0.66150    0.03920    0.65330    1.000
    N15      N        0.13350    0.23470    0.03520    1.000
    N16      N        0.16190    0.50180    0.75840    1.000
    Nd15     Nd       0.16918    0.37218    0.01468    1.000
    Nd16     Nd       0.38996    0.13602    0.32563    1.000
    O57      O        0.24770    0.27000    0.12830    1.000
    O58      O        0.27690    0.15190    0.20390    1.000
    O59      O        0.06030    0.35610    0.93080    1.000
    O60      O        0.98060    0.28400    0.88700    1.000
    O61      O        0.12290    0.38440    0.79630    1.000
    O62      O        0.15890    0.45280    0.91100    1.000
    O63      O        0.13420    0.47000    0.61830    1.000
    O64      O        0.17260    0.59570    0.62500    1.000
    C99      C        0.23860    0.20110    0.14760    1.000
    C100     C        0.17340    0.17730    0.09380    1.000
    C101     C        0.15490    0.10200    0.10420    1.000
    H43      H        0.18270    0.06250    0.14430    1.000
    C102     C        0.09410    0.08750    0.05330    1.000
    H44      H        0.08060    0.03760    0.05850    1.000
    C103     C        0.05330    0.14870    0.99410    1.000
    H45      H        0.01230    0.14050    0.95990    1.000
    C104     C        0.07550    0.22200    0.98770    1.000
    C105     C        0.03510    0.29320    0.92960    1.000
    C106     C        0.15050    0.44650    0.84720    1.000
    C107     C        0.17450    0.51220    0.82850    1.000
    C108     C        0.21340    0.57590    0.88310    1.000
    H46      H        0.22150    0.58390    0.93180    1.000
    C109     C        0.24020    0.62730    0.86590    1.000
    H47      H        0.26760    0.66860    0.90360    1.000
    C110     C        0.22570    0.61670    0.79230    1.000
    H48      H        0.24320    0.65010    0.77890    1.000
    C111     C        0.18410    0.55450    0.73810    1.000
    C112     C        0.16150    0.53920    0.65330    1.000
