# CIF file generated by openbabel 3.1.0, see https://openbabel.org
data_I
_chemical_name_common 'image0'
_cell_length_a 30.573
_cell_length_b 30.573
_cell_length_c 13.521
_cell_angle_alpha 90
_cell_angle_beta 90
_cell_angle_gamma 120
_space_group_name_H-M_alt 'P 1'
_space_group_name_Hall 'P 1'
loop_
    _symmetry_equiv_pos_as_xyz
    x,y,z
loop_
    _atom_site_label
    _atom_site_type_symbol
    _atom_site_fract_x
    _atom_site_fract_y
    _atom_site_fract_z
    _atom_site_occupancy
    La1      La       0.60716    0.07390    0.41988    1.000
    La2      La       0.52876    0.04816    0.68654    1.000
    La3      La       0.58981    0.04951    0.95333    1.000
    P1       P        0.65110    0.09907    0.69277    1.000
    O1       O        0.62060    0.09440    0.59930    1.000
    O2       O        0.61263    0.08336    0.77760    1.000
    O3       O        0.67840    0.06990    0.68970    1.000
    N1       N        0.79300    0.32130    0.66800    1.000
    N2       N        0.85860    0.39760    0.65940    1.000
    N3       N        0.81810    0.39810    0.61280    1.000
    C1       C        0.69640    0.16530    0.70440    1.000
    C2       C        0.74780    0.18420    0.68550    1.000
    H1       H        0.76020    0.16150    0.67780    1.000
    C3       C        0.78100    0.23590    0.67790    1.000
    H2       H        0.81600    0.24870    0.66650    1.000
    C4       C        0.76180    0.26810    0.68710    1.000
    C5       C        0.71100    0.25060    0.71130    1.000
    H3       H        0.69890    0.27350    0.72100    1.000
    C6       C        0.67910    0.19880    0.72040    1.000
    H4       H        0.64480    0.18610    0.73790    1.000
    C7       C        0.84280    0.35140    0.69020    1.000
    H5       H        0.86320    0.34050    0.72310    1.000
    C8       C        0.78060    0.35270    0.62030    1.000
    H6       H        0.74780    0.34230    0.59520    1.000
    P2       P        0.47407    0.04680    0.48163    1.000
    O4       O        0.44989    0.02048    0.58020    1.000
    O5       O        0.45131    0.01098    0.39590    1.000
    O6       O        0.53092    0.06881    0.49550    1.000
    N4       N        0.42670    0.21517    0.43650    1.000
    N5       N        0.43430    0.29010    0.43050    1.000
    N6       N        0.38420    0.25480    0.41590    1.000
    C9       C        0.46030    0.09750    0.46720    1.000
    C10      C        0.49690    0.14530    0.43440    1.000
    H7       H        0.52970    0.15120    0.41910    1.000
    C11      C        0.48650    0.18450    0.42350    1.000
    H8       H        0.51170    0.21680    0.40130    1.000
    C12      C        0.43840    0.17510    0.44590    1.000
    C13      C        0.40180    0.12790    0.47970    1.000
    H9       H        0.36910    0.12210    0.49610    1.000
    C14      C        0.41260    0.08980    0.48920    1.000
    H10      H        0.38710    0.05760    0.51140    1.000
    C15      C        0.45830    0.26550    0.44380    1.000
    H11      H        0.49340    0.28100    0.45700    1.000
    C16      C        0.38060    0.21100    0.41890    1.000
    H12      H        0.35010    0.17990    0.41010    1.000
    P3       P        0.48392    0.07184    0.89937    1.000
    O7       O        0.46610    0.05625    0.79250    1.000
    O8       O        0.53960    0.08810    0.89990    1.000
    O9       O        0.45240    0.03267    0.97280    1.000
    N7       N        0.46760    0.25850    0.95020    1.000
    N8       N        0.44090    0.31140    0.94690    1.000
    C17      C        0.48580    0.13180    0.92600    1.000
    C18      C        0.53530    0.17840    0.92440    1.000
    H13      H        0.56550    0.17700    0.91740    1.000
    C19      C        0.53680    0.22360    0.93310    1.000
    H14      H        0.56800    0.25450    0.93130    1.000
    C20      C        0.48940    0.22280    0.94530    1.000
    C21      C        0.44290    0.17900    0.94580    1.000
    H15      H        0.41180    0.17850    0.95270    1.000
    C22      C        0.44640    0.13770    0.93590    1.000
    H16      H        0.41490    0.10710    0.93580    1.000
    C23      C        0.42460    0.26070    0.93070    1.000
    H17      H        0.39220    0.23440    0.91120    1.000
    C24      C        0.50140    0.30360    0.97310    1.000
    H18      H        0.53480    0.31210    0.99090    1.000
    N9       N        0.48600    0.33840    0.97010    1.000
    P4       P        0.52645    0.05426    0.18587    1.000
    O10      O        0.54320    0.04663    0.28780    1.000
    O11      O        0.47887    0.00505    0.16230    1.000
    O12      O        0.56370    0.07590    0.11080    1.000
    N10      N        0.43540    0.19360    0.18240    1.000
    N11      N        0.38190    0.21990    0.16360    1.000
    N12      N        0.42840    0.25970    0.18480    1.000
    C25      C        0.49970    0.09990    0.19330    1.000
    C26      C        0.44910    0.08060    0.21300    1.000
    H19      H        0.42850    0.04560    0.22700    1.000
    C27      C        0.42780    0.11150    0.21270    1.000
    H20      H        0.39340    0.09830    0.23010    1.000
    C28      C        0.45710    0.16130    0.18690    1.000
    C29      C        0.51260    0.18320    0.17540    1.000
    H21      H        0.53500    0.21850    0.17050    1.000
    C30      C        0.52950    0.14940    0.17230    1.000
    H22      H        0.56370    0.16130    0.15470    1.000
    C31      C        0.38510    0.17740    0.16530    1.000
    H23      H        0.35850    0.14360    0.15660    1.000
    C32      C        0.46120    0.24080    0.19320    1.000
    O13      O        0.65550    0.05860    0.08950    1.000
    O14      O        0.64940    0.02320    0.87930    1.000
    O15      O        0.64070    0.12740    0.25540    1.000
    O16      O        0.66040    0.03710    0.49080    1.000
    O17      O        0.62140    0.16470    0.44150    1.000
    N13      N        0.50000    0.27410    0.95780    1.000
    N14      N        0.52880    0.35810    0.98330    1.000
    C33      C        0.47840    0.12690    0.92100    1.000
    C34      C        0.51790    0.17320    0.92350    1.000
    H24      H        0.55050    0.17680    0.91800    1.000
    C35      C        0.51490    0.21910    0.93450    1.000
    H25      H        0.54290    0.25240    0.93850    1.000
    C36      C        0.46390    0.20600    0.93810    1.000
    C37      C        0.42150    0.16210    0.93560    1.000
    H26      H        0.38880    0.15870    0.93750    1.000
    C38      C        0.43040    0.11830    0.92930    1.000
    H27      H        0.40280    0.08470    0.93130    1.000
    C39      C        0.46350    0.28980    0.95100    1.000
    H28      H        0.42870    0.26870    0.93540    1.000
    C40      C        0.54080    0.31760    0.98120    1.000
    H29      H        0.57320    0.32170    0.99450    1.000
    N15      N        0.50040    0.23170    0.19650    1.000
    N16      N        0.47670    0.28760    0.21890    1.000
    N17      N        0.52760    0.31000    0.23990    1.000
    C41      C        0.52680    0.10540    0.18500    1.000
    C42      C        0.48380    0.10020    0.19800    1.000
    H30      H        0.45600    0.06720    0.20830    1.000
    C43      C        0.47460    0.14600    0.19900    1.000
    H31      H        0.44230    0.13860    0.22220    1.000
    C44      C        0.49930    0.18490    0.17700    1.000
    C45      C        0.56150    0.19800    0.17680    1.000
    H32      H        0.58900    0.23160    0.18120    1.000
    C46      C        0.56960    0.15500    0.16980    1.000
    H33      H        0.60200    0.15950    0.15570    1.000
    C47      C        0.54110    0.27600    0.22590    1.000
    H34      H        0.57420    0.28140    0.23490    1.000
    O18      O        0.57670    0.06320    0.11510    1.000
    O19      O        0.65370    0.09320    0.25630    1.000
    O20      O        0.66980    0.03490    0.42520    1.000
    O21      O        0.62160    0.16110    0.39940    1.000
    O22      O        0.63500    0.00340    0.84470    1.000
    O23      O        0.65600    0.03200    0.06430    1.000
    La4      La       0.92610    0.53326    0.41988    1.000
    La5      La       0.95184    0.48061    0.68654    1.000
    La6      La       0.95049    0.54030    0.95333    1.000
    P5       P        0.90093    0.55203    0.69277    1.000
    O24      O        0.90560    0.52620    0.59930    1.000
    O25      O        0.91664    0.52927    0.77760    1.000
    O26      O        0.93010    0.60850    0.68970    1.000
    N18      N        0.67870    0.47170    0.66800    1.000
    N19      N        0.60240    0.46100    0.65940    1.000
    N20      N        0.60190    0.42000    0.61280    1.000
    C48      C        0.83470    0.53110    0.70440    1.000
    C49      C        0.81580    0.56360    0.68550    1.000
    H35      H        0.83850    0.59870    0.67780    1.000
    C50      C        0.76410    0.54510    0.67790    1.000
    H36      H        0.75130    0.56730    0.66650    1.000
    C51      C        0.73190    0.49370    0.68710    1.000
    C52      C        0.74940    0.46040    0.71130    1.000
    H37      H        0.72650    0.42540    0.72100    1.000
    C53      C        0.80120    0.48030    0.72040    1.000
    H38      H        0.81390    0.45870    0.73790    1.000
    C54      C        0.64860    0.49140    0.69020    1.000
    H39      H        0.65950    0.52270    0.72310    1.000
    C55      C        0.64730    0.42790    0.62030    1.000
    H40      H        0.65770    0.40550    0.59520    1.000
    P6       P        0.95320    0.42727    0.48163    1.000
    O27      O        0.97952    0.42941    0.58020    1.000
    O28      O        0.98902    0.44033    0.39590    1.000
    O29      O        0.93119    0.46211    0.49550    1.000
    N21      N        0.78483    0.21153    0.43650    1.000
    N22      N        0.70990    0.14420    0.43050    1.000
    N23      N        0.74520    0.12940    0.41590    1.000
    C56      C        0.90250    0.36280    0.46720    1.000
    C57      C        0.85470    0.35160    0.43440    1.000
    H41      H        0.84880    0.37850    0.41910    1.000
    C58      C        0.81550    0.30200    0.42350    1.000
    H42      H        0.78320    0.29490    0.40130    1.000
    C59      C        0.82490    0.26330    0.44590    1.000
    C60      C        0.87210    0.27390    0.47970    1.000
    H43      H        0.87790    0.24700    0.49610    1.000
    C61      C        0.91020    0.32280    0.48920    1.000
    H44      H        0.94240    0.32950    0.51140    1.000
    C62      C        0.73450    0.19280    0.44380    1.000
    H45      H        0.71900    0.21240    0.45700    1.000
    C63      C        0.78900    0.16960    0.41890    1.000
    H46      H        0.82010    0.17020    0.41010    1.000
    P7       P        0.92816    0.41208    0.89937    1.000
    O30      O        0.94375    0.40985    0.79250    1.000
    O31      O        0.91190    0.45150    0.89990    1.000
    O32      O        0.96733    0.41973    0.97280    1.000
    N24      N        0.74150    0.20910    0.95020    1.000
    N25      N        0.68860    0.12950    0.94690    1.000
    C64      C        0.86820    0.35400    0.92600    1.000
    C65      C        0.82160    0.35690    0.92440    1.000
    H47      H        0.82300    0.38850    0.91740    1.000
    C66      C        0.77640    0.31320    0.93310    1.000
    H48      H        0.74550    0.31350    0.93130    1.000
    C67      C        0.77720    0.26660    0.94530    1.000
    C68      C        0.82100    0.26390    0.94580    1.000
    H49      H        0.82150    0.23330    0.95270    1.000
    C69      C        0.86230    0.30870    0.93590    1.000
    H50      H        0.89290    0.30780    0.93580    1.000
    C70      C        0.73930    0.16390    0.93070    1.000
    H51      H        0.76560    0.15780    0.91120    1.000
    C71      C        0.69640    0.19780    0.97310    1.000
    H52      H        0.68790    0.22270    0.99090    1.000
    N26      N        0.66160    0.14760    0.97010    1.000
    P8       P        0.94574    0.47219    0.18587    1.000
    O33      O        0.95337    0.49657    0.28780    1.000
    O34      O        0.99495    0.47382    0.16230    1.000
    O35      O        0.92410    0.48780    0.11080    1.000
    N27      N        0.80640    0.24180    0.18240    1.000
    N28      N        0.78010    0.16200    0.16360    1.000
    N29      N        0.74030    0.16870    0.18480    1.000
    C72      C        0.90010    0.39980    0.19330    1.000
    C73      C        0.91940    0.36850    0.21300    1.000
    H53      H        0.95440    0.38290    0.22700    1.000
    C74      C        0.88850    0.31630    0.21270    1.000
    H54      H        0.90170    0.29510    0.23010    1.000
    C75      C        0.83870    0.29580    0.18690    1.000
    C76      C        0.81680    0.32940    0.17540    1.000
    H55      H        0.78150    0.31650    0.17050    1.000
    C77      C        0.85060    0.38010    0.17230    1.000
    H56      H        0.83870    0.40240    0.15470    1.000
    C78      C        0.82260    0.20770    0.16530    1.000
    H57      H        0.85640    0.21490    0.15660    1.000
    C79      C        0.75920    0.22040    0.19320    1.000
    O36      O        0.94140    0.59690    0.08950    1.000
    O37      O        0.97680    0.62620    0.87930    1.000
    O38      O        0.87260    0.51330    0.25540    1.000
    O39      O        0.96290    0.62330    0.49080    1.000
    O40      O        0.83530    0.45670    0.44150    1.000
    N30      N        0.72590    0.22590    0.95780    1.000
    N31      N        0.64190    0.17070    0.98330    1.000
    C80      C        0.87310    0.35150    0.92100    1.000
    C81      C        0.82680    0.34470    0.92350    1.000
    H58      H        0.82320    0.37370    0.91800    1.000
    C82      C        0.78090    0.29580    0.93450    1.000
    H59      H        0.74760    0.29050    0.93850    1.000
    C83      C        0.79400    0.25790    0.93810    1.000
    C84      C        0.83790    0.25940    0.93560    1.000
    H60      H        0.84130    0.23010    0.93750    1.000
    C85      C        0.88170    0.31210    0.92930    1.000
    H61      H        0.91530    0.31810    0.93130    1.000
    C86      C        0.71020    0.17370    0.95100    1.000
    H62      H        0.73130    0.16000    0.93540    1.000
    C87      C        0.68240    0.22320    0.98120    1.000
    H63      H        0.67830    0.25150    0.99450    1.000
    N32      N        0.76830    0.26870    0.19650    1.000
    N33      N        0.71240    0.18910    0.21890    1.000
    N34      N        0.69000    0.21760    0.23990    1.000
    C88      C        0.89460    0.42140    0.18500    1.000
    C89      C        0.89980    0.38360    0.19800    1.000
    H64      H        0.93280    0.38880    0.20830    1.000
    C90      C        0.85400    0.32860    0.19900    1.000
    H65      H        0.86140    0.30370    0.22220    1.000
    C91      C        0.81510    0.31440    0.17700    1.000
    C92      C        0.80200    0.36350    0.17680    1.000
    H66      H        0.76840    0.35740    0.18120    1.000
    C93      C        0.84500    0.41460    0.16980    1.000
    H67      H        0.84050    0.44250    0.15570    1.000
    C94      C        0.72400    0.26510    0.22590    1.000
    H68      H        0.71860    0.29280    0.23490    1.000
    O41      O        0.93680    0.51350    0.11510    1.000
    O42      O        0.90680    0.56050    0.25630    1.000
    O43      O        0.96510    0.63490    0.42520    1.000
    O44      O        0.83890    0.46050    0.39940    1.000
    O45      O        0.99660    0.63160    0.84470    1.000
    O46      O        0.96800    0.62400    0.06430    1.000
    La7      La       0.46674    0.39284    0.41988    1.000
    La8      La       0.51939    0.47124    0.68654    1.000
    La9      La       0.45971    0.41019    0.95333    1.000
    P9       P        0.44797    0.34890    0.69277    1.000
    O47      O        0.47380    0.37940    0.59930    1.000
    O48      O        0.47073    0.38737    0.77760    1.000
    O49      O        0.39150    0.32160    0.68970    1.000
    N35      N        0.52830    0.20700    0.66800    1.000
    N36      N        0.53900    0.14140    0.65940    1.000
    N37      N        0.58000    0.18190    0.61280    1.000
    C95      C        0.46890    0.30360    0.70440    1.000
    C96      C        0.43640    0.25220    0.68550    1.000
    H69      H        0.40130    0.23980    0.67780    1.000
    C97      C        0.45490    0.21900    0.67790    1.000
    H70      H        0.43270    0.18400    0.66650    1.000
    C98      C        0.50630    0.23820    0.68710    1.000
    C99      C        0.53960    0.28900    0.71130    1.000
    H71      H        0.57460    0.30110    0.72100    1.000
    C100     C        0.51970    0.32090    0.72040    1.000
    H72      H        0.54130    0.35520    0.73790    1.000
    C101     C        0.50860    0.15720    0.69020    1.000
    H73      H        0.47730    0.13680    0.72310    1.000
    C102     C        0.57210    0.21940    0.62030    1.000
    H74      H        0.59450    0.25220    0.59520    1.000
    P10      P        0.57273    0.52593    0.48163    1.000
    O50      O        0.57059    0.55011    0.58020    1.000
    O51      O        0.55967    0.54869    0.39590    1.000
    O52      O        0.53789    0.46908    0.49550    1.000
    N38      N        0.78847    0.57330    0.43650    1.000
    N39      N        0.85580    0.56570    0.43050    1.000
    N40      N        0.87060    0.61580    0.41590    1.000
    C103     C        0.63720    0.53970    0.46720    1.000
    C104     C        0.64840    0.50310    0.43440    1.000
    H75      H        0.62150    0.47030    0.41910    1.000
    C105     C        0.69800    0.51350    0.42350    1.000
    H76      H        0.70510    0.48830    0.40130    1.000
    C106     C        0.73670    0.56160    0.44590    1.000
    C107     C        0.72610    0.59820    0.47970    1.000
    H77      H        0.75300    0.63090    0.49610    1.000
    C108     C        0.67720    0.58740    0.48920    1.000
    H78      H        0.67050    0.61290    0.51140    1.000
    C109     C        0.80720    0.54170    0.44380    1.000
    H79      H        0.78760    0.50660    0.45700    1.000
    C110     C        0.83040    0.61940    0.41890    1.000
    H80      H        0.82980    0.64990    0.41010    1.000
    P11      P        0.58792    0.51608    0.89937    1.000
    O53      O        0.59015    0.53390    0.79250    1.000
    O54      O        0.54850    0.46040    0.89990    1.000
    O55      O        0.58027    0.54760    0.97280    1.000
    N41      N        0.79090    0.53240    0.95020    1.000
    N42      N        0.87050    0.55910    0.94690    1.000
    C111     C        0.64600    0.51420    0.92600    1.000
    C112     C        0.64310    0.46470    0.92440    1.000
    H81      H        0.61150    0.43450    0.91740    1.000
    C113     C        0.68680    0.46320    0.93310    1.000
    H82      H        0.68650    0.43200    0.93130    1.000
    C114     C        0.73340    0.51060    0.94530    1.000
    C115     C        0.73610    0.55710    0.94580    1.000
    H83      H        0.76670    0.58820    0.95270    1.000
    C116     C        0.69130    0.55360    0.93590    1.000
    H84      H        0.69220    0.58510    0.93580    1.000
    C117     C        0.83610    0.57540    0.93070    1.000
    H85      H        0.84220    0.60780    0.91120    1.000
    C118     C        0.80220    0.49860    0.97310    1.000
    H86      H        0.77730    0.46520    0.99090    1.000
    N43      N        0.85240    0.51400    0.97010    1.000
    P12      P        0.52781    0.47355    0.18587    1.000
    O56      O        0.50343    0.45680    0.28780    1.000
    O57      O        0.52618    0.52113    0.16230    1.000
    O58      O        0.51220    0.43630    0.11080    1.000
    N44      N        0.75820    0.56460    0.18240    1.000
    N45      N        0.83800    0.61810    0.16360    1.000
    N46      N        0.83130    0.57160    0.18480    1.000
    C119     C        0.60020    0.50030    0.19330    1.000
    C120     C        0.63150    0.55090    0.21300    1.000
    H87      H        0.61710    0.57150    0.22700    1.000
    C121     C        0.68370    0.57220    0.21270    1.000
    H88      H        0.70490    0.60660    0.23010    1.000
    C122     C        0.70420    0.54290    0.18690    1.000
    C123     C        0.67060    0.48740    0.17540    1.000
    H89      H        0.68350    0.46500    0.17050    1.000
    C124     C        0.61990    0.47050    0.17230    1.000
    H90      H        0.59760    0.43630    0.15470    1.000
    C125     C        0.79230    0.61490    0.16530    1.000
    H91      H        0.78510    0.64150    0.15660    1.000
    C126     C        0.77960    0.53880    0.19320    1.000
    O59      O        0.40310    0.34450    0.08950    1.000
    O60      O        0.37380    0.35060    0.87930    1.000
    O61      O        0.48670    0.35930    0.25540    1.000
    O62      O        0.37670    0.33960    0.49080    1.000
    O63      O        0.54330    0.37860    0.44150    1.000
    N47      N        0.77410    0.50000    0.95780    1.000
    N48      N        0.82930    0.47120    0.98330    1.000
    C127     C        0.64850    0.52160    0.92100    1.000
    C128     C        0.65530    0.48210    0.92350    1.000
    H92      H        0.62630    0.44950    0.91800    1.000
    C129     C        0.70420    0.48510    0.93450    1.000
    H93      H        0.70950    0.45710    0.93850    1.000
    C130     C        0.74210    0.53610    0.93810    1.000
    C131     C        0.74060    0.57850    0.93560    1.000
    H94      H        0.76990    0.61120    0.93750    1.000
    C132     C        0.68790    0.56960    0.92930    1.000
    H95      H        0.68190    0.59720    0.93130    1.000
    C133     C        0.82630    0.53650    0.95100    1.000
    H96      H        0.84000    0.57130    0.93540    1.000
    C134     C        0.77680    0.45920    0.98120    1.000
    H97      H        0.74850    0.42680    0.99450    1.000
    N49      N        0.73130    0.49960    0.19650    1.000
    N50      N        0.81090    0.52330    0.21890    1.000
    N51      N        0.78240    0.47240    0.23990    1.000
    C135     C        0.57860    0.47320    0.18500    1.000
    C136     C        0.61640    0.51620    0.19800    1.000
    H98      H        0.61120    0.54400    0.20830    1.000
    C137     C        0.67140    0.52540    0.19900    1.000
    H99      H        0.69630    0.55770    0.22220    1.000
    C138     C        0.68560    0.50070    0.17700    1.000
    C139     C        0.63650    0.43850    0.17680    1.000
    H100     H        0.64260    0.41100    0.18120    1.000
    C140     C        0.58540    0.43040    0.16980    1.000
    H101     H        0.55750    0.39800    0.15570    1.000
    C141     C        0.73490    0.45890    0.22590    1.000
    H102     H        0.70720    0.42580    0.23490    1.000
    O64      O        0.48650    0.42330    0.11510    1.000
    O65      O        0.43950    0.34630    0.25630    1.000
    O66      O        0.36510    0.33020    0.42520    1.000
    O67      O        0.53950    0.37840    0.39940    1.000
    O68      O        0.36840    0.36500    0.84470    1.000
    O69      O        0.37600    0.34400    0.06430    1.000
    La10     La       0.39284    0.92610    0.58012    1.000
    La11     La       0.47124    0.95184    0.31346    1.000
    La12     La       0.41019    0.95049    0.04667    1.000
    P13      P        0.34890    0.90093    0.30723    1.000
    O70      O        0.37940    0.90560    0.40070    1.000
    O71      O        0.38737    0.91664    0.22240    1.000
    O72      O        0.32160    0.93010    0.31030    1.000
    N52      N        0.20700    0.67870    0.33200    1.000
    N53      N        0.14140    0.60240    0.34060    1.000
    N54      N        0.18190    0.60190    0.38720    1.000
    C142     C        0.30360    0.83470    0.29560    1.000
    C143     C        0.25220    0.81580    0.31450    1.000
    H103     H        0.23980    0.83850    0.32220    1.000
    C144     C        0.21900    0.76410    0.32210    1.000
    H104     H        0.18400    0.75130    0.33350    1.000
    C145     C        0.23820    0.73190    0.31290    1.000
    C146     C        0.28900    0.74940    0.28870    1.000
    H105     H        0.30110    0.72650    0.27900    1.000
    C147     C        0.32090    0.80120    0.27960    1.000
    H106     H        0.35520    0.81390    0.26210    1.000
    C148     C        0.15720    0.64860    0.30980    1.000
    H107     H        0.13680    0.65950    0.27690    1.000
    C149     C        0.21940    0.64730    0.37970    1.000
    H108     H        0.25220    0.65770    0.40480    1.000
    P14      P        0.52593    0.95320    0.51837    1.000
    O73      O        0.55011    0.97952    0.41980    1.000
    O74      O        0.54869    0.98902    0.60410    1.000
    O75      O        0.46908    0.93119    0.50450    1.000
    N55      N        0.57330    0.78483    0.56350    1.000
    N56      N        0.56570    0.70990    0.56950    1.000
    N57      N        0.61580    0.74520    0.58410    1.000
    C150     C        0.53970    0.90250    0.53280    1.000
    C151     C        0.50310    0.85470    0.56560    1.000
    H109     H        0.47030    0.84880    0.58090    1.000
    C152     C        0.51350    0.81550    0.57650    1.000
    H110     H        0.48830    0.78320    0.59870    1.000
    C153     C        0.56160    0.82490    0.55410    1.000
    C154     C        0.59820    0.87210    0.52030    1.000
    H111     H        0.63090    0.87790    0.50390    1.000
    C155     C        0.58740    0.91020    0.51080    1.000
    H112     H        0.61290    0.94240    0.48860    1.000
    C156     C        0.54170    0.73450    0.55620    1.000
    H113     H        0.50660    0.71900    0.54300    1.000
    C157     C        0.61940    0.78900    0.58110    1.000
    H114     H        0.64990    0.82010    0.58990    1.000
    P15      P        0.51608    0.92816    0.10063    1.000
    O76      O        0.53390    0.94375    0.20750    1.000
    O77      O        0.46040    0.91190    0.10010    1.000
    O78      O        0.54760    0.96733    0.02720    1.000
    N58      N        0.53240    0.74150    0.04980    1.000
    N59      N        0.55910    0.68860    0.05310    1.000
    C158     C        0.51420    0.86820    0.07400    1.000
    C159     C        0.46470    0.82160    0.07560    1.000
    H115     H        0.43450    0.82300    0.08260    1.000
    C160     C        0.46320    0.77640    0.06690    1.000
    H116     H        0.43200    0.74550    0.06870    1.000
    C161     C        0.51060    0.77720    0.05470    1.000
    C162     C        0.55710    0.82100    0.05420    1.000
    H117     H        0.58820    0.82150    0.04730    1.000
    C163     C        0.55360    0.86230    0.06410    1.000
    H118     H        0.58510    0.89290    0.06420    1.000
    C164     C        0.57540    0.73930    0.06930    1.000
    H119     H        0.60780    0.76560    0.08880    1.000
    C165     C        0.49860    0.69640    0.02690    1.000
    H120     H        0.46520    0.68790    0.00910    1.000
    N60      N        0.51400    0.66160    0.02990    1.000
    P16      P        0.47355    0.94574    0.81413    1.000
    O79      O        0.45680    0.95337    0.71220    1.000
    O80      O        0.52113    0.99495    0.83770    1.000
    O81      O        0.43630    0.92410    0.88920    1.000
    N61      N        0.56460    0.80640    0.81760    1.000
    N62      N        0.61810    0.78010    0.83640    1.000
    N63      N        0.57160    0.74030    0.81520    1.000
    C166     C        0.50030    0.90010    0.80670    1.000
    C167     C        0.55090    0.91940    0.78700    1.000
    H121     H        0.57150    0.95440    0.77300    1.000
    C168     C        0.57220    0.88850    0.78730    1.000
    H122     H        0.60660    0.90170    0.76990    1.000
    C169     C        0.54290    0.83870    0.81310    1.000
    C170     C        0.48740    0.81680    0.82460    1.000
    H123     H        0.46500    0.78150    0.82950    1.000
    C171     C        0.47050    0.85060    0.82770    1.000
    H124     H        0.43630    0.83870    0.84530    1.000
    C172     C        0.61490    0.82260    0.83470    1.000
    H125     H        0.64150    0.85640    0.84340    1.000
    C173     C        0.53880    0.75920    0.80680    1.000
    O82      O        0.34450    0.94140    0.91050    1.000
    O83      O        0.35060    0.97680    0.12070    1.000
    O84      O        0.35930    0.87260    0.74460    1.000
    O85      O        0.33960    0.96290    0.50920    1.000
    O86      O        0.37860    0.83530    0.55850    1.000
    N64      N        0.50000    0.72590    0.04220    1.000
    N65      N        0.47120    0.64190    0.01670    1.000
    C174     C        0.52160    0.87310    0.07900    1.000
    C175     C        0.48210    0.82680    0.07650    1.000
    H126     H        0.44950    0.82320    0.08200    1.000
    C176     C        0.48510    0.78090    0.06550    1.000
    H127     H        0.45710    0.74760    0.06150    1.000
    C177     C        0.53610    0.79400    0.06190    1.000
    C178     C        0.57850    0.83790    0.06440    1.000
    H128     H        0.61120    0.84130    0.06250    1.000
    C179     C        0.56960    0.88170    0.07070    1.000
    H129     H        0.59720    0.91530    0.06870    1.000
    C180     C        0.53650    0.71020    0.04900    1.000
    H130     H        0.57130    0.73130    0.06460    1.000
    C181     C        0.45920    0.68240    0.01880    1.000
    H131     H        0.42680    0.67830    0.00550    1.000
    N66      N        0.49960    0.76830    0.80350    1.000
    N67      N        0.52330    0.71240    0.78110    1.000
    N68      N        0.47240    0.69000    0.76010    1.000
    C182     C        0.47320    0.89460    0.81500    1.000
    C183     C        0.51620    0.89980    0.80200    1.000
    H132     H        0.54400    0.93280    0.79170    1.000
    C184     C        0.52540    0.85400    0.80100    1.000
    H133     H        0.55770    0.86140    0.77780    1.000
    C185     C        0.50070    0.81510    0.82300    1.000
    C186     C        0.43850    0.80200    0.82320    1.000
    H134     H        0.41100    0.76840    0.81880    1.000
    C187     C        0.43040    0.84500    0.83020    1.000
    H135     H        0.39800    0.84050    0.84430    1.000
    C188     C        0.45890    0.72400    0.77410    1.000
    H136     H        0.42580    0.71860    0.76510    1.000
    O87      O        0.42330    0.93680    0.88490    1.000
    O88      O        0.34630    0.90680    0.74370    1.000
    O89      O        0.33020    0.96510    0.57480    1.000
    O90      O        0.37840    0.83890    0.60060    1.000
    O91      O        0.36500    0.99660    0.15530    1.000
    O92      O        0.34400    0.96800    0.93570    1.000
    La13     La       0.07390    0.46674    0.58012    1.000
    La14     La       0.04816    0.51940    0.31346    1.000
    La15     La       0.04951    0.45970    0.04667    1.000
    P17      P        0.09907    0.44797    0.30723    1.000
    O93      O        0.09440    0.47380    0.40070    1.000
    O94      O        0.08336    0.47073    0.22240    1.000
    O95      O        0.06990    0.39150    0.31030    1.000
    N69      N        0.32130    0.52830    0.33200    1.000
    N70      N        0.39760    0.53900    0.34060    1.000
    N71      N        0.39810    0.58000    0.38720    1.000
    C189     C        0.16530    0.46890    0.29560    1.000
    C190     C        0.18420    0.43640    0.31450    1.000
    H137     H        0.16150    0.40130    0.32220    1.000
    C191     C        0.23590    0.45490    0.32210    1.000
    H138     H        0.24870    0.43270    0.33350    1.000
    C192     C        0.26810    0.50630    0.31290    1.000
    C193     C        0.25060    0.53960    0.28870    1.000
    H139     H        0.27350    0.57460    0.27900    1.000
    C194     C        0.19880    0.51970    0.27960    1.000
    H140     H        0.18610    0.54130    0.26210    1.000
    C195     C        0.35140    0.50860    0.30980    1.000
    H141     H        0.34050    0.47730    0.27690    1.000
    C196     C        0.35270    0.57210    0.37970    1.000
    H142     H        0.34230    0.59450    0.40480    1.000
    P18      P        0.04680    0.57273    0.51837    1.000
    O96      O        0.02048    0.57059    0.41980    1.000
    O97      O        0.01098    0.55967    0.60410    1.000
    O98      O        0.06881    0.53789    0.50450    1.000
    N72      N        0.21517    0.78847    0.56350    1.000
    N73      N        0.29010    0.85580    0.56950    1.000
    N74      N        0.25480    0.87060    0.58410    1.000
    C197     C        0.09750    0.63720    0.53280    1.000
    C198     C        0.14530    0.64840    0.56560    1.000
    H143     H        0.15120    0.62150    0.58090    1.000
    C199     C        0.18450    0.69800    0.57650    1.000
    H144     H        0.21680    0.70510    0.59870    1.000
    C200     C        0.17510    0.73670    0.55410    1.000
    C201     C        0.12790    0.72610    0.52030    1.000
    H145     H        0.12210    0.75300    0.50390    1.000
    C202     C        0.08980    0.67720    0.51080    1.000
    H146     H        0.05760    0.67050    0.48860    1.000
    C203     C        0.26550    0.80720    0.55620    1.000
    H147     H        0.28100    0.78760    0.54300    1.000
    C204     C        0.21100    0.83040    0.58110    1.000
    H148     H        0.17990    0.82980    0.58990    1.000
    P19      P        0.07184    0.58792    0.10063    1.000
    O99      O        0.05625    0.59015    0.20750    1.000
    O100     O        0.08810    0.54850    0.10010    1.000
    O101     O        0.03267    0.58027    0.02720    1.000
    N75      N        0.25850    0.79090    0.04980    1.000
    N76      N        0.31140    0.87050    0.05310    1.000
    C205     C        0.13180    0.64600    0.07400    1.000
    C206     C        0.17840    0.64310    0.07560    1.000
    H149     H        0.17700    0.61150    0.08260    1.000
    C207     C        0.22360    0.68680    0.06690    1.000
    H150     H        0.25450    0.68650    0.06870    1.000
    C208     C        0.22280    0.73340    0.05470    1.000
    C209     C        0.17900    0.73610    0.05420    1.000
    H151     H        0.17850    0.76670    0.04730    1.000
    C210     C        0.13770    0.69130    0.06410    1.000
    H152     H        0.10710    0.69220    0.06420    1.000
    C211     C        0.26070    0.83610    0.06930    1.000
    H153     H        0.23440    0.84220    0.08880    1.000
    C212     C        0.30360    0.80220    0.02690    1.000
    H154     H        0.31210    0.77730    0.00910    1.000
    N77      N        0.33840    0.85240    0.02990    1.000
    P20      P        0.05426    0.52781    0.81413    1.000
    O102     O        0.04663    0.50343    0.71220    1.000
    O103     O        0.00505    0.52618    0.83770    1.000
    O104     O        0.07590    0.51220    0.88920    1.000
    N78      N        0.19360    0.75820    0.81760    1.000
    N79      N        0.21990    0.83800    0.83640    1.000
    N80      N        0.25970    0.83130    0.81520    1.000
    C213     C        0.09990    0.60020    0.80670    1.000
    C214     C        0.08060    0.63150    0.78700    1.000
    H155     H        0.04560    0.61710    0.77300    1.000
    C215     C        0.11150    0.68370    0.78730    1.000
    H156     H        0.09830    0.70490    0.76990    1.000
    C216     C        0.16130    0.70420    0.81310    1.000
    C217     C        0.18320    0.67060    0.82460    1.000
    H157     H        0.21850    0.68350    0.82950    1.000
    C218     C        0.14940    0.61990    0.82770    1.000
    H158     H        0.16130    0.59760    0.84530    1.000
    C219     C        0.17740    0.79230    0.83470    1.000
    H159     H        0.14360    0.78510    0.84340    1.000
    C220     C        0.24080    0.77960    0.80680    1.000
    O105     O        0.05860    0.40310    0.91050    1.000
    O106     O        0.02320    0.37380    0.12070    1.000
    O107     O        0.12740    0.48670    0.74460    1.000
    O108     O        0.03710    0.37670    0.50920    1.000
    O109     O        0.16470    0.54330    0.55850    1.000
    N81      N        0.27410    0.77410    0.04220    1.000
    N82      N        0.35810    0.82930    0.01670    1.000
    C221     C        0.12690    0.64850    0.07900    1.000
    C222     C        0.17320    0.65530    0.07650    1.000
    H160     H        0.17680    0.62630    0.08200    1.000
    C223     C        0.21910    0.70420    0.06550    1.000
    H161     H        0.25240    0.70950    0.06150    1.000
    C224     C        0.20600    0.74210    0.06190    1.000
    C225     C        0.16210    0.74060    0.06440    1.000
    H162     H        0.15870    0.76990    0.06250    1.000
    C226     C        0.11830    0.68790    0.07070    1.000
    H163     H        0.08470    0.68190    0.06870    1.000
    C227     C        0.28980    0.82630    0.04900    1.000
    H164     H        0.26870    0.84000    0.06460    1.000
    C228     C        0.31760    0.77680    0.01880    1.000
    H165     H        0.32170    0.74850    0.00550    1.000
    N83      N        0.23170    0.73130    0.80350    1.000
    N84      N        0.28760    0.81090    0.78110    1.000
    N85      N        0.31000    0.78240    0.76010    1.000
    C229     C        0.10540    0.57860    0.81500    1.000
    C230     C        0.10020    0.61640    0.80200    1.000
    H166     H        0.06720    0.61120    0.79170    1.000
    C231     C        0.14600    0.67140    0.80100    1.000
    H167     H        0.13860    0.69630    0.77780    1.000
    C232     C        0.18490    0.68560    0.82300    1.000
    C233     C        0.19800    0.63650    0.82320    1.000
    H168     H        0.23160    0.64260    0.81880    1.000
    C234     C        0.15500    0.58540    0.83020    1.000
    H169     H        0.15950    0.55750    0.84430    1.000
    C235     C        0.27600    0.73490    0.77410    1.000
    H170     H        0.28140    0.70720    0.76510    1.000
    O110     O        0.06320    0.48650    0.88490    1.000
    O111     O        0.09320    0.43950    0.74370    1.000
    O112     O        0.03490    0.36510    0.57480    1.000
    O113     O        0.16110    0.53950    0.60060    1.000
    O114     O        0.00340    0.36840    0.15530    1.000
    O115     O        0.03200    0.37600    0.93570    1.000
    La16     La       0.53326    0.60716    0.58012    1.000
    La17     La       0.48061    0.52876    0.31346    1.000
    La18     La       0.54030    0.58981    0.04667    1.000
    P21      P        0.55203    0.65110    0.30723    1.000
    O116     O        0.52620    0.62060    0.40070    1.000
    O117     O        0.52927    0.61263    0.22240    1.000
    O118     O        0.60850    0.67840    0.31030    1.000
    N86      N        0.47170    0.79300    0.33200    1.000
    N87      N        0.46100    0.85860    0.34060    1.000
    N88      N        0.42000    0.81810    0.38720    1.000
    C236     C        0.53110    0.69640    0.29560    1.000
    C237     C        0.56360    0.74780    0.31450    1.000
    H171     H        0.59870    0.76020    0.32220    1.000
    C238     C        0.54510    0.78100    0.32210    1.000
    H172     H        0.56730    0.81600    0.33350    1.000
    C239     C        0.49370    0.76180    0.31290    1.000
    C240     C        0.46040    0.71100    0.28870    1.000
    H173     H        0.42540    0.69890    0.27900    1.000
    C241     C        0.48030    0.67910    0.27960    1.000
    H174     H        0.45870    0.64480    0.26210    1.000
    C242     C        0.49140    0.84280    0.30980    1.000
    H175     H        0.52270    0.86320    0.27690    1.000
    C243     C        0.42790    0.78060    0.37970    1.000
    H176     H        0.40550    0.74780    0.40480    1.000
    P22      P        0.42727    0.47407    0.51837    1.000
    O119     O        0.42941    0.44989    0.41980    1.000
    O120     O        0.44033    0.45131    0.60410    1.000
    O121     O        0.46211    0.53092    0.50450    1.000
    N89      N        0.21153    0.42670    0.56350    1.000
    N90      N        0.14420    0.43430    0.56950    1.000
    N91      N        0.12940    0.38420    0.58410    1.000
    C244     C        0.36280    0.46030    0.53280    1.000
    C245     C        0.35160    0.49690    0.56560    1.000
    H177     H        0.37850    0.52970    0.58090    1.000
    C246     C        0.30200    0.48650    0.57650    1.000
    H178     H        0.29490    0.51170    0.59870    1.000
    C247     C        0.26330    0.43840    0.55410    1.000
    C248     C        0.27390    0.40180    0.52030    1.000
    H179     H        0.24700    0.36910    0.50390    1.000
    C249     C        0.32280    0.41260    0.51080    1.000
    H180     H        0.32950    0.38710    0.48860    1.000
    C250     C        0.19280    0.45830    0.55620    1.000
    H181     H        0.21240    0.49340    0.54300    1.000
    C251     C        0.16960    0.38060    0.58110    1.000
    H182     H        0.17020    0.35010    0.58990    1.000
    P23      P        0.41208    0.48392    0.10063    1.000
    O122     O        0.40985    0.46610    0.20750    1.000
    O123     O        0.45150    0.53960    0.10010    1.000
    O124     O        0.41973    0.45240    0.02720    1.000
    N92      N        0.20910    0.46760    0.04980    1.000
    N93      N        0.12950    0.44090    0.05310    1.000
    C252     C        0.35400    0.48580    0.07400    1.000
    C253     C        0.35690    0.53530    0.07560    1.000
    H183     H        0.38850    0.56550    0.08260    1.000
    C254     C        0.31320    0.53680    0.06690    1.000
    H184     H        0.31350    0.56800    0.06870    1.000
    C255     C        0.26660    0.48940    0.05470    1.000
    C256     C        0.26390    0.44290    0.05420    1.000
    H185     H        0.23330    0.41180    0.04730    1.000
    C257     C        0.30870    0.44640    0.06410    1.000
    H186     H        0.30780    0.41490    0.06420    1.000
    C258     C        0.16390    0.42460    0.06930    1.000
    H187     H        0.15780    0.39220    0.08880    1.000
    C259     C        0.19780    0.50140    0.02690    1.000
    H188     H        0.22270    0.53480    0.00910    1.000
    N94      N        0.14760    0.48600    0.02990    1.000
    P24      P        0.47219    0.52645    0.81413    1.000
    O125     O        0.49657    0.54320    0.71220    1.000
    O126     O        0.47382    0.47887    0.83770    1.000
    O127     O        0.48780    0.56370    0.88920    1.000
    N95      N        0.24180    0.43540    0.81760    1.000
    N96      N        0.16200    0.38190    0.83640    1.000
    N97      N        0.16870    0.42840    0.81520    1.000
    C260     C        0.39980    0.49970    0.80670    1.000
    C261     C        0.36850    0.44910    0.78700    1.000
    H189     H        0.38290    0.42850    0.77300    1.000
    C262     C        0.31630    0.42780    0.78730    1.000
    H190     H        0.29510    0.39340    0.76990    1.000
    C263     C        0.29580    0.45710    0.81310    1.000
    C264     C        0.32940    0.51260    0.82460    1.000
    H191     H        0.31650    0.53500    0.82950    1.000
    C265     C        0.38010    0.52950    0.82770    1.000
    H192     H        0.40240    0.56370    0.84530    1.000
    C266     C        0.20770    0.38510    0.83470    1.000
    H193     H        0.21490    0.35850    0.84340    1.000
    C267     C        0.22040    0.46120    0.80680    1.000
    O128     O        0.59690    0.65550    0.91050    1.000
    O129     O        0.62620    0.64940    0.12070    1.000
    O130     O        0.51330    0.64070    0.74460    1.000
    O131     O        0.62330    0.66040    0.50920    1.000
    O132     O        0.45670    0.62140    0.55850    1.000
    N98      N        0.22590    0.50000    0.04220    1.000
    N99      N        0.17070    0.52880    0.01670    1.000
    C268     C        0.35150    0.47840    0.07900    1.000
    C269     C        0.34470    0.51790    0.07650    1.000
    H194     H        0.37370    0.55050    0.08200    1.000
    C270     C        0.29580    0.51490    0.06550    1.000
    H195     H        0.29050    0.54290    0.06150    1.000
    C271     C        0.25790    0.46390    0.06190    1.000
    C272     C        0.25940    0.42150    0.06440    1.000
    H196     H        0.23010    0.38880    0.06250    1.000
    C273     C        0.31210    0.43040    0.07070    1.000
    H197     H        0.31810    0.40280    0.06870    1.000
    C274     C        0.17370    0.46350    0.04900    1.000
    H198     H        0.16000    0.42870    0.06460    1.000
    C275     C        0.22320    0.54080    0.01880    1.000
    H199     H        0.25150    0.57320    0.00550    1.000
    N100     N        0.26870    0.50040    0.80350    1.000
    N101     N        0.18910    0.47670    0.78110    1.000
    N102     N        0.21760    0.52760    0.76010    1.000
    C276     C        0.42140    0.52680    0.81500    1.000
    C277     C        0.38360    0.48380    0.80200    1.000
    H200     H        0.38880    0.45600    0.79170    1.000
    C278     C        0.32860    0.47460    0.80100    1.000
    H201     H        0.30370    0.44230    0.77780    1.000
    C279     C        0.31440    0.49930    0.82300    1.000
    C280     C        0.36350    0.56150    0.82320    1.000
    H202     H        0.35740    0.58900    0.81880    1.000
    C281     C        0.41460    0.56960    0.83020    1.000
    H203     H        0.44250    0.60200    0.84430    1.000
    C282     C        0.26510    0.54110    0.77410    1.000
    H204     H        0.29280    0.57420    0.76510    1.000
    O133     O        0.51350    0.57670    0.88490    1.000
    O134     O        0.56050    0.65370    0.74370    1.000
    O135     O        0.63490    0.66980    0.57480    1.000
    O136     O        0.46050    0.62160    0.60060    1.000
    O137     O        0.63160    0.63500    0.15530    1.000
    O138     O        0.62400    0.65600    0.93570    1.000
