# CIF file generated by openbabel 3.1.0, see https://openbabel.org
data_I
_chemical_name_common 'RUFMUA_clean'
_cell_length_a 6.853
_cell_length_b 9.007
_cell_length_c 9.987
_cell_angle_alpha 102.13
_cell_angle_beta 100.53
_cell_angle_gamma 110.21
_space_group_name_H-M_alt 'P 1'
_space_group_name_Hall 'P 1'
loop_
    _symmetry_equiv_pos_as_xyz
    x,y,z
loop_
    _atom_site_label
    _atom_site_type_symbol
    _atom_site_fract_x
    _atom_site_fract_y
    _atom_site_fract_z
    _atom_site_occupancy
    Ca1      Ca       0.68520    0.41532    0.39009    1.000
    Ca2      Ca       0.31480    0.58468    0.60991    1.000
    H1       H        0.49480    0.22910    0.04160    1.000
    H2       H        0.70440    0.49120    0.90930    1.000
    H3       H        0.12670    0.88480    0.24310    1.000
    H4       H        0.15590    0.87580    0.83850    1.000
    H5       H        0.50520    0.77090    0.95840    1.000
    H6       H        0.29560    0.50880    0.09070    1.000
    H7       H        0.87330    0.11520    0.75690    1.000
    H8       H        0.84410    0.12420    0.16150    1.000
    C1       C        0.91530    0.67230    0.85070    1.000
    C2       C        0.82260    0.59630    0.94500    1.000
    C3       C        0.90370    0.67450    0.09150    1.000
    C4       C        0.07380    0.83010    0.14350    1.000
    C5       C        0.16650    0.90560    0.04920    1.000
    C6       C        0.08960    0.82570    0.90240    1.000
    C7       C        0.83220    0.58980    0.69330    1.000
    C8       C        0.80630    0.59140    0.19310    1.000
    C9       C        0.34420    0.07420    0.10580    1.000
    C10      C        0.08470    0.32770    0.14930    1.000
    C11      C        0.17740    0.40370    0.05500    1.000
    C12      C        0.09630    0.32550    0.90850    1.000
    C13      C        0.92620    0.16990    0.85650    1.000
    C14      C        0.83350    0.09440    0.95080    1.000
    C15      C        0.91040    0.17430    0.09760    1.000
    C16      C        0.16780    0.41020    0.30670    1.000
    C17      C        0.19370    0.40860    0.80690    1.000
    C18      C        0.65580    0.92580    0.89420    1.000
    O1       O        0.96690    0.59150    0.62230    1.000
    O2       O        0.63130    0.52090    0.63470    1.000
    O3       O        0.67450    0.44220    0.14700    1.000
    O4       O        0.85980    0.67220    0.32360    1.000
    O5       O        0.40630    0.13660    0.00510    1.000
    O6       O        0.42170    0.14750    0.23310    1.000
    O7       O        0.03310    0.40850    0.37770    1.000
    O8       O        0.36870    0.47910    0.36530    1.000
    O9       O        0.32550    0.55780    0.85300    1.000
    O10      O        0.14020    0.32780    0.67640    1.000
    O11      O        0.59370    0.86340    0.99490    1.000
    O12      O        0.57830    0.85250    0.76690    1.000
