# CIF file generated by openbabel 3.1.0, see https://openbabel.org
data_I
_chemical_name_common 'image0'
_cell_length_a 13.6542
_cell_length_b 13.6542
_cell_length_c 42.16
_cell_angle_alpha 90
_cell_angle_beta 90
_cell_angle_gamma 90
_space_group_name_H-M_alt 'P 1'
_space_group_name_Hall 'P 1'
loop_
    _symmetry_equiv_pos_as_xyz
    x,y,z
loop_
    _atom_site_label
    _atom_site_type_symbol
    _atom_site_fract_x
    _atom_site_fract_y
    _atom_site_fract_z
    _atom_site_occupancy
    Cu1      Cu       0.55767    0.51279    0.27928    1.000
    Cu2      Cu       0.72394    0.42180    0.23633    1.000
    Cu3      Cu       0.32772    0.54182    0.27036    1.000
    Cu4      Cu       0.63234    0.84817    0.25398    1.000
    S1       S        0.71554    0.38635    0.30821    1.000
    S2       S        0.46042    0.69980    0.30074    1.000
    S3       S        0.68642    0.64860    0.21550    1.000
    O1       O        0.20780    0.54860    0.29446    1.000
    O2       O        0.10041    0.43110    0.28302    1.000
    O3       O        0.65400    0.47470    0.31065    1.000
    O4       O        0.77848    0.39670    0.28024    1.000
    O5       O        0.64950    0.30170    0.30391    1.000
    O6       O        0.77320    0.37400    0.33646    1.000
    O7       O        0.52830    0.61837    0.30832    1.000
    O8       O        0.36070    0.66030    0.29633    1.000
    O9       O        0.49260    0.74510    0.27059    1.000
    O10      O        0.46120    0.77030    0.32594    1.000
    O11      O        0.71000    0.57859    0.24087    1.000
    O12      O        0.69640    0.74790    0.22912    1.000
    O13      O        0.58610    0.63300    0.20483    1.000
    O14      O        0.75330    0.64030    0.18881    1.000
    N1       N        0.93274    0.63829    0.46926    1.000
    N2       N        0.91230    0.46912    0.47213    1.000
    C1       C        0.91000    0.55780    0.48476    1.000
    H1       H        0.89120    0.56360    0.50590    1.000
    C2       C        0.96160    0.63090    0.43897    1.000
    H2       H        0.97640    0.68740    0.42760    1.000
    C3       C        0.96970    0.54080    0.42445    1.000
    C4       C        0.94230    0.46060    0.44218    1.000
    H3       H        0.94480    0.39880    0.43300    1.000
    C5       C        0.00870    0.53050    0.39205    1.000
    C6       C        0.08340    0.59150    0.38171    1.000
    H4       H        0.10790    0.63960    0.39520    1.000
    C7       C        0.12070    0.58160    0.35221    1.000
    H5       H        0.17020    0.62370    0.34560    1.000
    C8       C        0.08670    0.50980    0.33139    1.000
    C9       C        0.01120    0.45000    0.34120    1.000
    H6       H        0.98640    0.40240    0.32760    1.000
    C10      C        0.97230    0.46120    0.37136    1.000
    H7       H        0.92080    0.42130    0.37780    1.000
    C11      C        0.13500    0.49490    0.30046    1.000
    Cu5      Cu       0.44233    0.48721    0.77928    1.000
    Cu6      Cu       0.27606    0.57820    0.73633    1.000
    Cu7      Cu       0.67228    0.45818    0.77036    1.000
    Cu8      Cu       0.36766    0.15183    0.75398    1.000
    S4       S        0.28446    0.61365    0.80821    1.000
    S5       S        0.53958    0.30020    0.80074    1.000
    S6       S        0.31358    0.35140    0.71550    1.000
    O15      O        0.79220    0.45140    0.79446    1.000
    O16      O        0.89959    0.56890    0.78302    1.000
    O17      O        0.34600    0.52530    0.81065    1.000
    O18      O        0.22152    0.60330    0.78024    1.000
    O19      O        0.35050    0.69830    0.80391    1.000
    O20      O        0.22680    0.62600    0.83646    1.000
    O21      O        0.47170    0.38163    0.80832    1.000
    O22      O        0.63930    0.33970    0.79633    1.000
    O23      O        0.50740    0.25490    0.77059    1.000
    O24      O        0.53880    0.22970    0.82594    1.000
    O25      O        0.29000    0.42141    0.74087    1.000
    O26      O        0.30360    0.25210    0.72912    1.000
    O27      O        0.41390    0.36700    0.70483    1.000
    O28      O        0.24670    0.35970    0.68881    1.000
    N3       N        0.06726    0.36171    0.96926    1.000
    N4       N        0.08770    0.53088    0.97213    1.000
    C12      C        0.09000    0.44220    0.98476    1.000
    H8       H        0.10880    0.43640    0.00590    1.000
    C13      C        0.03840    0.36910    0.93897    1.000
    H9       H        0.02360    0.31260    0.92760    1.000
    C14      C        0.03030    0.45920    0.92445    1.000
    C15      C        0.05770    0.53940    0.94218    1.000
    H10      H        0.05520    0.60120    0.93300    1.000
    C16      C        0.99130    0.46950    0.89205    1.000
    C17      C        0.91660    0.40850    0.88171    1.000
    H11      H        0.89210    0.36040    0.89520    1.000
    C18      C        0.87930    0.41840    0.85221    1.000
    H12      H        0.82980    0.37630    0.84560    1.000
    C19      C        0.91330    0.49020    0.83139    1.000
    C20      C        0.98880    0.55000    0.84120    1.000
    H13      H        0.01360    0.59760    0.82760    1.000
    C21      C        0.02770    0.53880    0.87136    1.000
    H14      H        0.07920    0.57870    0.87780    1.000
    C22      C        0.86500    0.50510    0.80046    1.000
    Cu9      Cu       0.98721    0.05767    0.02928    1.000
    Cu10     Cu       0.07820    0.22394    0.98633    1.000
    Cu11     Cu       0.95818    0.82772    0.02036    1.000
    Cu12     Cu       0.65183    0.13234    0.00398    1.000
    S7       S        0.11365    0.21554    0.05821    1.000
    S8       S        0.80020    0.96042    0.05074    1.000
    S9       S        0.85140    0.18642    0.96550    1.000
    O29      O        0.95140    0.70780    0.04446    1.000
    O30      O        0.06890    0.60041    0.03302    1.000
    O31      O        0.02530    0.15400    0.06065    1.000
    O32      O        0.10330    0.27848    0.03024    1.000
    O33      O        0.19830    0.14950    0.05391    1.000
    O34      O        0.12600    0.27320    0.08646    1.000
    O35      O        0.88163    0.02830    0.05832    1.000
    O36      O        0.83970    0.86070    0.04633    1.000
    O37      O        0.75490    0.99260    0.02059    1.000
    O38      O        0.72970    0.96120    0.07594    1.000
    O39      O        0.92141    0.21000    0.99087    1.000
    O40      O        0.75210    0.19640    0.97912    1.000
    O41      O        0.86700    0.08610    0.95483    1.000
    O42      O        0.85970    0.25330    0.93881    1.000
    N5       N        0.86171    0.43274    0.21926    1.000
    N6       N        0.03088    0.41230    0.22213    1.000
    C23      C        0.94220    0.41000    0.23476    1.000
    H15      H        0.93640    0.39120    0.25590    1.000
    C24      C        0.86910    0.46160    0.18897    1.000
    H16      H        0.81260    0.47640    0.17760    1.000
    C25      C        0.95920    0.46970    0.17445    1.000
    C26      C        0.03940    0.44230    0.19218    1.000
    H17      H        0.10120    0.44480    0.18300    1.000
    C27      C        0.96950    0.50870    0.14205    1.000
    C28      C        0.90850    0.58340    0.13171    1.000
    H18      H        0.86040    0.60790    0.14520    1.000
    C29      C        0.91840    0.62070    0.10221    1.000
    H19      H        0.87630    0.67020    0.09560    1.000
    C30      C        0.99020    0.58670    0.08139    1.000
    C31      C        0.05000    0.51120    0.09120    1.000
    H20      H        0.09760    0.48640    0.07760    1.000
    C32      C        0.03880    0.47230    0.12136    1.000
    H21      H        0.07870    0.42080    0.12780    1.000
    C33      C        0.00510    0.63500    0.05046    1.000
    Cu13     Cu       0.01279    0.94233    0.52928    1.000
    Cu14     Cu       0.92180    0.77606    0.48633    1.000
    Cu15     Cu       0.04182    0.17228    0.52036    1.000
    Cu16     Cu       0.34817    0.86766    0.50398    1.000
    S10      S        0.88635    0.78446    0.55821    1.000
    S11      S        0.19980    0.03958    0.55074    1.000
    S12      S        0.14860    0.81358    0.46550    1.000
    O43      O        0.04860    0.29220    0.54446    1.000
    O44      O        0.93110    0.39959    0.53302    1.000
    O45      O        0.97470    0.84600    0.56065    1.000
    O46      O        0.89670    0.72152    0.53024    1.000
    O47      O        0.80170    0.85050    0.55391    1.000
    O48      O        0.87400    0.72680    0.58646    1.000
    O49      O        0.11837    0.97170    0.55832    1.000
    O50      O        0.16030    0.13930    0.54633    1.000
    O51      O        0.24510    0.00740    0.52059    1.000
    O52      O        0.27030    0.03880    0.57594    1.000
    O53      O        0.07859    0.79000    0.49087    1.000
    O54      O        0.24790    0.80360    0.47912    1.000
    O55      O        0.13300    0.91390    0.45483    1.000
    O56      O        0.14030    0.74670    0.43881    1.000
    N7       N        0.13829    0.56726    0.71926    1.000
    N8       N        0.96912    0.58770    0.72213    1.000
    C34      C        0.05780    0.59000    0.73476    1.000
    H22      H        0.06360    0.60880    0.75590    1.000
    C35      C        0.13090    0.53840    0.68897    1.000
    H23      H        0.18740    0.52360    0.67760    1.000
    C36      C        0.04080    0.53030    0.67445    1.000
    C37      C        0.96060    0.55770    0.69218    1.000
    H24      H        0.89880    0.55520    0.68300    1.000
    C38      C        0.03050    0.49130    0.64205    1.000
    C39      C        0.09150    0.41660    0.63171    1.000
    H25      H        0.13960    0.39210    0.64520    1.000
    C40      C        0.08160    0.37930    0.60221    1.000
    H26      H        0.12370    0.32980    0.59560    1.000
    C41      C        0.00980    0.41330    0.58139    1.000
    C42      C        0.95000    0.48880    0.59120    1.000
    H27      H        0.90240    0.51360    0.57760    1.000
    C43      C        0.96120    0.52770    0.62136    1.000
    H28      H        0.92130    0.57920    0.62780    1.000
    C44      C        0.99490    0.36500    0.55046    1.000
    Cu17     Cu       0.94233    0.01279    0.47072    1.000
    Cu18     Cu       0.77606    0.92180    0.51367    1.000
    Cu19     Cu       0.17228    0.04182    0.47964    1.000
    Cu20     Cu       0.86766    0.34817    0.49602    1.000
    S13      S        0.78446    0.88635    0.44179    1.000
    S14      S        0.03958    0.19980    0.44926    1.000
    S15      S        0.81358    0.14860    0.53450    1.000
    O57      O        0.29220    0.04860    0.45554    1.000
    O58      O        0.39959    0.93110    0.46698    1.000
    O59      O        0.84600    0.97470    0.43935    1.000
    O60      O        0.72152    0.89670    0.46976    1.000
    O61      O        0.85050    0.80170    0.44609    1.000
    O62      O        0.72680    0.87400    0.41354    1.000
    O63      O        0.97170    0.11837    0.44168    1.000
    O64      O        0.13930    0.16030    0.45367    1.000
    O65      O        0.00740    0.24510    0.47941    1.000
    O66      O        0.03880    0.27030    0.42406    1.000
    O67      O        0.79000    0.07859    0.50913    1.000
    O68      O        0.80360    0.24790    0.52088    1.000
    O69      O        0.91390    0.13300    0.54517    1.000
    O70      O        0.74670    0.14030    0.56119    1.000
    N9       N        0.56726    0.13829    0.28074    1.000
    N10      N        0.58770    0.96912    0.27787    1.000
    C45      C        0.59000    0.05780    0.26524    1.000
    H29      H        0.60880    0.06360    0.24410    1.000
    C46      C        0.53840    0.13090    0.31103    1.000
    H30      H        0.52360    0.18740    0.32240    1.000
    C47      C        0.53030    0.04080    0.32555    1.000
    C48      C        0.55770    0.96060    0.30782    1.000
    H31      H        0.55520    0.89880    0.31700    1.000
    C49      C        0.49130    0.03050    0.35795    1.000
    C50      C        0.41660    0.09150    0.36829    1.000
    H32      H        0.39210    0.13960    0.35480    1.000
    C51      C        0.37930    0.08160    0.39779    1.000
    H33      H        0.32980    0.12370    0.40440    1.000
    C52      C        0.41330    0.00980    0.41861    1.000
    C53      C        0.48880    0.95000    0.40880    1.000
    H34      H        0.51360    0.90240    0.42240    1.000
    C54      C        0.52770    0.96120    0.37864    1.000
    H35      H        0.57920    0.92130    0.37220    1.000
    C55      C        0.36500    0.99490    0.44954    1.000
    Cu21     Cu       0.05767    0.98721    0.97072    1.000
    Cu22     Cu       0.22394    0.07820    0.01367    1.000
    Cu23     Cu       0.82772    0.95818    0.97964    1.000
    Cu24     Cu       0.13234    0.65183    0.99602    1.000
    S16      S        0.21554    0.11365    0.94179    1.000
    S17      S        0.96042    0.80020    0.94926    1.000
    S18      S        0.18642    0.85140    0.03450    1.000
    O71      O        0.70780    0.95140    0.95554    1.000
    O72      O        0.60041    0.06890    0.96698    1.000
    O73      O        0.15400    0.02530    0.93935    1.000
    O74      O        0.27848    0.10330    0.96976    1.000
    O75      O        0.14950    0.19830    0.94609    1.000
    O76      O        0.27320    0.12600    0.91354    1.000
    O77      O        0.02830    0.88163    0.94168    1.000
    O78      O        0.86070    0.83970    0.95367    1.000
    O79      O        0.99260    0.75490    0.97941    1.000
    O80      O        0.96120    0.72970    0.92406    1.000
    O81      O        0.21000    0.92141    0.00913    1.000
    O82      O        0.19640    0.75210    0.02088    1.000
    O83      O        0.08610    0.86700    0.04517    1.000
    O84      O        0.25330    0.85970    0.06119    1.000
    N11      N        0.43274    0.86171    0.78074    1.000
    N12      N        0.41230    0.03088    0.77787    1.000
    C56      C        0.41000    0.94220    0.76524    1.000
    H36      H        0.39120    0.93640    0.74410    1.000
    C57      C        0.46160    0.86910    0.81103    1.000
    H37      H        0.47640    0.81260    0.82240    1.000
    C58      C        0.46970    0.95920    0.82555    1.000
    C59      C        0.44230    0.03940    0.80782    1.000
    H38      H        0.44480    0.10120    0.81700    1.000
    C60      C        0.50870    0.96950    0.85795    1.000
    C61      C        0.58340    0.90850    0.86829    1.000
    H39      H        0.60790    0.86040    0.85480    1.000
    C62      C        0.62070    0.91840    0.89779    1.000
    H40      H        0.67020    0.87630    0.90440    1.000
    C63      C        0.58670    0.99020    0.91861    1.000
    C64      C        0.51120    0.05000    0.90880    1.000
    H41      H        0.48640    0.09760    0.92240    1.000
    C65      C        0.47230    0.03880    0.87864    1.000
    H42      H        0.42080    0.07870    0.87220    1.000
    C66      C        0.63500    0.00510    0.94954    1.000
    Cu25     Cu       0.51279    0.55767    0.72072    1.000
    Cu26     Cu       0.42180    0.72394    0.76367    1.000
    Cu27     Cu       0.54182    0.32772    0.72964    1.000
    Cu28     Cu       0.84817    0.63234    0.74602    1.000
    S19      S        0.38635    0.71554    0.69179    1.000
    S20      S        0.69980    0.46042    0.69926    1.000
    S21      S        0.64860    0.68642    0.78450    1.000
    O85      O        0.54860    0.20780    0.70554    1.000
    O86      O        0.43110    0.10041    0.71698    1.000
    O87      O        0.47470    0.65400    0.68935    1.000
    O88      O        0.39670    0.77848    0.71976    1.000
    O89      O        0.30170    0.64950    0.69609    1.000
    O90      O        0.37400    0.77320    0.66354    1.000
    O91      O        0.61837    0.52830    0.69168    1.000
    O92      O        0.66030    0.36070    0.70367    1.000
    O93      O        0.74510    0.49260    0.72941    1.000
    O94      O        0.77030    0.46120    0.67406    1.000
    O95      O        0.57859    0.71000    0.75913    1.000
    O96      O        0.74790    0.69640    0.77088    1.000
    O97      O        0.63300    0.58610    0.79517    1.000
    O98      O        0.64030    0.75330    0.81119    1.000
    N13      N        0.63829    0.93274    0.53074    1.000
    N14      N        0.46912    0.91230    0.52787    1.000
    C67      C        0.55780    0.91000    0.51524    1.000
    H43      H        0.56360    0.89120    0.49410    1.000
    C68      C        0.63090    0.96160    0.56103    1.000
    H44      H        0.68740    0.97640    0.57240    1.000
    C69      C        0.54080    0.96970    0.57555    1.000
    C70      C        0.46060    0.94230    0.55782    1.000
    H45      H        0.39880    0.94480    0.56700    1.000
    C71      C        0.53050    0.00870    0.60795    1.000
    C72      C        0.59150    0.08340    0.61829    1.000
    H46      H        0.63960    0.10790    0.60480    1.000
    C73      C        0.58160    0.12070    0.64779    1.000
    H47      H        0.62370    0.17020    0.65440    1.000
    C74      C        0.50980    0.08670    0.66861    1.000
    C75      C        0.45000    0.01120    0.65880    1.000
    H48      H        0.40240    0.98640    0.67240    1.000
    C76      C        0.46120    0.97230    0.62864    1.000
    H49      H        0.42130    0.92080    0.62220    1.000
    C77      C        0.49490    0.13500    0.69954    1.000
    Cu29     Cu       0.48721    0.44233    0.22072    1.000
    Cu30     Cu       0.57820    0.27606    0.26367    1.000
    Cu31     Cu       0.45818    0.67228    0.22964    1.000
    Cu32     Cu       0.15183    0.36766    0.24602    1.000
    S22      S        0.61365    0.28446    0.19179    1.000
    S23      S        0.30020    0.53958    0.19926    1.000
    S24      S        0.35140    0.31358    0.28450    1.000
    O99      O        0.45140    0.79220    0.20554    1.000
    O100     O        0.56890    0.89959    0.21698    1.000
    O101     O        0.52530    0.34600    0.18935    1.000
    O102     O        0.60330    0.22152    0.21976    1.000
    O103     O        0.69830    0.35050    0.19609    1.000
    O104     O        0.62600    0.22680    0.16354    1.000
    O105     O        0.38163    0.47170    0.19168    1.000
    O106     O        0.33970    0.63930    0.20367    1.000
    O107     O        0.25490    0.50740    0.22941    1.000
    O108     O        0.22970    0.53880    0.17406    1.000
    O109     O        0.42141    0.29000    0.25913    1.000
    O110     O        0.25210    0.30360    0.27088    1.000
    O111     O        0.36700    0.41390    0.29517    1.000
    O112     O        0.35970    0.24670    0.31119    1.000
    N15      N        0.36171    0.06726    0.03074    1.000
    N16      N        0.53088    0.08770    0.02787    1.000
    C78      C        0.44220    0.09000    0.01524    1.000
    H50      H        0.43640    0.10880    0.99410    1.000
    C79      C        0.36910    0.03840    0.06103    1.000
    H51      H        0.31260    0.02360    0.07240    1.000
    C80      C        0.45920    0.03030    0.07555    1.000
    C81      C        0.53940    0.05770    0.05782    1.000
    H52      H        0.60120    0.05520    0.06700    1.000
    C82      C        0.46950    0.99130    0.10795    1.000
    C83      C        0.40850    0.91660    0.11829    1.000
    H53      H        0.36040    0.89210    0.10480    1.000
    C84      C        0.41840    0.87930    0.14779    1.000
    H54      H        0.37630    0.82980    0.15440    1.000
    C85      C        0.49020    0.91330    0.16861    1.000
    C86      C        0.55000    0.98880    0.15880    1.000
    H55      H        0.59760    0.01360    0.17240    1.000
    C87      C        0.53880    0.02770    0.12864    1.000
    H56      H        0.57870    0.07920    0.12220    1.000
    C88      C        0.50510    0.86500    0.19954    1.000
    O113     O        0.59106    0.40894    0.25000    1.000
    O114     O        0.45389    0.54611    0.25000    1.000
    O115     O        0.40894    0.59106    0.75000    1.000
    O116     O        0.54611    0.45389    0.75000    1.000
    O117     O        0.09106    0.09106    0.00000    1.000
    O118     O        0.95389    0.95389    0.00000    1.000
    O119     O        0.90894    0.90894    0.50000    1.000
    O120     O        0.04611    0.04611    0.50000    1.000
