# CIF file generated by openbabel 3.1.0, see https://openbabel.org
data_I
_chemical_name_common 'image0'
_cell_length_a 24.434
_cell_length_b 18.364
_cell_length_c 8.259
_cell_angle_alpha 90
_cell_angle_beta 101.72
_cell_angle_gamma 90
_space_group_name_H-M_alt 'P 1'
_space_group_name_Hall 'P 1'
loop_
    _symmetry_equiv_pos_as_xyz
    x,y,z
loop_
    _atom_site_label
    _atom_site_type_symbol
    _atom_site_fract_x
    _atom_site_fract_y
    _atom_site_fract_z
    _atom_site_occupancy
    C1       C        0.35060    0.54520    0.93920    1.000
    C2       C        0.38960    0.44180    0.87530    1.000
    C3       C        0.42630    0.55060    0.82130    1.000
    C4       C        0.29610    0.64910    0.02830    1.000
    C5       C        0.37040    0.31370    0.93360    1.000
    C6       C        0.32900    0.32410    0.02160    1.000
    H1       H        0.31930    0.37100    0.04760    1.000
    C7       C        0.38480    0.24240    0.90370    1.000
    H2       H        0.41390    0.23420    0.84870    1.000
    C8       C        0.50620    0.57950    0.68590    1.000
    C9       C        0.52670    0.51100    0.67020    1.000
    H3       H        0.50980    0.47120    0.70950    1.000
    C10      C        0.57270    0.49960    0.59600    1.000
    H4       H        0.58580    0.45260    0.58660    1.000
    C11      C        0.59880    0.55720    0.53710    1.000
    C12      C        0.57890    0.62650    0.55210    1.000
    H5       H        0.59690    0.66640    0.51740    1.000
    C13      C        0.53200    0.63650    0.61890    1.000
    H6       H        0.51700    0.68310    0.61920    1.000
    C14      C        0.64830    0.54450    0.46400    1.000
    C15      C        0.28400    0.13160    0.08840    1.000
    C16      C        0.31560    0.19280    0.04030    1.000
    C17      C        0.30070    0.26200    0.07350    1.000
    H7       H        0.27200    0.26930    0.13020    1.000
    C18      C        0.35740    0.18380    0.95270    1.000
    H8       H        0.36720    0.13700    0.92620    1.000
    C19      C        0.25040    0.86520    0.14630    1.000
    C20      C        0.26350    0.79030    0.09850    1.000
    C21      C        0.30830    0.77740    0.02020    1.000
    H9       H        0.32850    0.81670    0.99260    1.000
    C22      C        0.32290    0.70900    0.98350    1.000
    H10      H        0.35170    0.70270    0.92670    1.000
    C23      C        0.23720    0.73020    0.14790    1.000
    H11      H        0.20890    0.73640    0.20670    1.000
    C24      C        0.25240    0.66210    0.11080    1.000
    H12      H        0.23300    0.62250    0.14140    1.000
    N1       N        0.42890    0.47920    0.80740    1.000
    N2       N        0.38840    0.58760    0.89060    1.000
    N3       N        0.35000    0.47240    0.93680    1.000
    N4       N        0.39650    0.36820    0.87060    1.000
    H13      H        0.42180    0.35430    0.81870    1.000
    N5       N        0.30960    0.57640    0.00480    1.000
    H14      H        0.28780    0.54560    0.03830    1.000
    N6       N        0.46320    0.59650    0.76170    1.000
    H15      H        0.45820    0.64230    0.77480    1.000
    O1       O        0.67930    0.48760    0.51330    1.000
    O2       O        0.29380    0.06710    0.04080    1.000
    O3       O        0.25140    0.14080    0.18990    1.000
    O4       O        0.21700    0.87790    0.23990    1.000
    O5       O        0.27740    0.91900    0.09360    1.000
    O6       O        0.66180    0.58780    0.35860    1.000
    La1      La       0.74737    0.48604    0.80396    1.000
    C25      C        0.85060    0.04520    0.93920    1.000
    C26      C        0.88960    0.94180    0.87530    1.000
    C27      C        0.92630    0.05060    0.82130    1.000
    C28      C        0.79610    0.14910    0.02830    1.000
    C29      C        0.87040    0.81370    0.93360    1.000
    C30      C        0.82900    0.82410    0.02160    1.000
    H16      H        0.81930    0.87100    0.04760    1.000
    C31      C        0.88480    0.74240    0.90370    1.000
    H17      H        0.91390    0.73420    0.84870    1.000
    C32      C        0.00620    0.07950    0.68590    1.000
    C33      C        0.02670    0.01100    0.67020    1.000
    H18      H        0.00980    0.97120    0.70950    1.000
    C34      C        0.07270    0.99960    0.59600    1.000
    H19      H        0.08580    0.95260    0.58660    1.000
    C35      C        0.09880    0.05720    0.53710    1.000
    C36      C        0.07890    0.12650    0.55210    1.000
    H20      H        0.09690    0.16640    0.51740    1.000
    C37      C        0.03200    0.13650    0.61890    1.000
    H21      H        0.01700    0.18310    0.61920    1.000
    C38      C        0.14830    0.04450    0.46400    1.000
    C39      C        0.78400    0.63160    0.08840    1.000
    C40      C        0.81560    0.69280    0.04030    1.000
    C41      C        0.80070    0.76200    0.07350    1.000
    H22      H        0.77200    0.76930    0.13020    1.000
    C42      C        0.85740    0.68380    0.95270    1.000
    H23      H        0.86720    0.63700    0.92620    1.000
    C43      C        0.75040    0.36520    0.14630    1.000
    C44      C        0.76350    0.29030    0.09850    1.000
    C45      C        0.80830    0.27740    0.02020    1.000
    H24      H        0.82850    0.31670    0.99260    1.000
    C46      C        0.82290    0.20900    0.98350    1.000
    H25      H        0.85170    0.20270    0.92670    1.000
    C47      C        0.73720    0.23020    0.14790    1.000
    H26      H        0.70890    0.23640    0.20670    1.000
    C48      C        0.75240    0.16210    0.11080    1.000
    H27      H        0.73300    0.12250    0.14140    1.000
    N7       N        0.92890    0.97920    0.80740    1.000
    N8       N        0.88840    0.08760    0.89060    1.000
    N9       N        0.85000    0.97240    0.93680    1.000
    N10      N        0.89650    0.86820    0.87060    1.000
    H28      H        0.92180    0.85430    0.81870    1.000
    N11      N        0.80960    0.07640    0.00480    1.000
    H29      H        0.78780    0.04560    0.03830    1.000
    N12      N        0.96320    0.09650    0.76170    1.000
    H30      H        0.95820    0.14230    0.77480    1.000
    O7       O        0.17930    0.98760    0.51330    1.000
    O8       O        0.79380    0.56710    0.04080    1.000
    O9       O        0.75140    0.64080    0.18990    1.000
    O10      O        0.71700    0.37790    0.23990    1.000
    O11      O        0.77740    0.41900    0.09360    1.000
    O12      O        0.16180    0.08780    0.35860    1.000
    La2      La       0.24737    0.98604    0.80396    1.000
    C49      C        0.35060    0.45480    0.43920    1.000
    C50      C        0.38960    0.55820    0.37530    1.000
    C51      C        0.42630    0.44940    0.32130    1.000
    C52      C        0.29610    0.35090    0.52830    1.000
    C53      C        0.37040    0.68630    0.43360    1.000
    C54      C        0.32900    0.67590    0.52160    1.000
    H31      H        0.31930    0.62900    0.54760    1.000
    C55      C        0.38480    0.75760    0.40370    1.000
    H32      H        0.41390    0.76580    0.34870    1.000
    C56      C        0.50620    0.42050    0.18590    1.000
    C57      C        0.52670    0.48900    0.17020    1.000
    H33      H        0.50980    0.52880    0.20950    1.000
    C58      C        0.57270    0.50040    0.09600    1.000
    H34      H        0.58580    0.54740    0.08660    1.000
    C59      C        0.59880    0.44280    0.03710    1.000
    C60      C        0.57890    0.37350    0.05210    1.000
    H35      H        0.59690    0.33360    0.01740    1.000
    C61      C        0.53200    0.36350    0.11890    1.000
    H36      H        0.51700    0.31690    0.11920    1.000
    C62      C        0.64830    0.45550    0.96400    1.000
    C63      C        0.28400    0.86840    0.58840    1.000
    C64      C        0.31560    0.80720    0.54030    1.000
    C65      C        0.30070    0.73800    0.57350    1.000
    H37      H        0.27200    0.73070    0.63020    1.000
    C66      C        0.35740    0.81620    0.45270    1.000
    H38      H        0.36720    0.86300    0.42620    1.000
    C67      C        0.25040    0.13480    0.64630    1.000
    C68      C        0.26350    0.20970    0.59850    1.000
    C69      C        0.30830    0.22260    0.52020    1.000
    H39      H        0.32850    0.18330    0.49260    1.000
    C70      C        0.32290    0.29100    0.48350    1.000
    H40      H        0.35170    0.29730    0.42670    1.000
    C71      C        0.23720    0.26980    0.64790    1.000
    H41      H        0.20890    0.26360    0.70670    1.000
    C72      C        0.25240    0.33790    0.61080    1.000
    H42      H        0.23300    0.37750    0.64140    1.000
    N13      N        0.42890    0.52080    0.30740    1.000
    N14      N        0.38840    0.41240    0.39060    1.000
    N15      N        0.35000    0.52760    0.43680    1.000
    N16      N        0.39650    0.63180    0.37060    1.000
    H43      H        0.42180    0.64570    0.31870    1.000
    N17      N        0.30960    0.42360    0.50480    1.000
    H44      H        0.28780    0.45440    0.53830    1.000
    N18      N        0.46320    0.40350    0.26170    1.000
    H45      H        0.45820    0.35770    0.27480    1.000
    O13      O        0.67930    0.51240    0.01330    1.000
    O14      O        0.29380    0.93290    0.54080    1.000
    O15      O        0.25140    0.85920    0.68990    1.000
    O16      O        0.21700    0.12210    0.73990    1.000
    O17      O        0.27740    0.08100    0.59360    1.000
    O18      O        0.66180    0.41220    0.85860    1.000
    La3      La       0.74737    0.51396    0.30396    1.000
    C73      C        0.85060    0.95480    0.43920    1.000
    C74      C        0.88960    0.05820    0.37530    1.000
    C75      C        0.92630    0.94940    0.32130    1.000
    C76      C        0.79610    0.85090    0.52830    1.000
    C77      C        0.87040    0.18630    0.43360    1.000
    C78      C        0.82900    0.17590    0.52160    1.000
    H46      H        0.81930    0.12900    0.54760    1.000
    C79      C        0.88480    0.25760    0.40370    1.000
    H47      H        0.91390    0.26580    0.34870    1.000
    C80      C        0.00620    0.92050    0.18590    1.000
    C81      C        0.02670    0.98900    0.17020    1.000
    H48      H        0.00980    0.02880    0.20950    1.000
    C82      C        0.07270    0.00040    0.09600    1.000
    H49      H        0.08580    0.04740    0.08660    1.000
    C83      C        0.09880    0.94280    0.03710    1.000
    C84      C        0.07890    0.87350    0.05210    1.000
    H50      H        0.09690    0.83360    0.01740    1.000
    C85      C        0.03200    0.86350    0.11890    1.000
    H51      H        0.01700    0.81690    0.11920    1.000
    C86      C        0.14830    0.95550    0.96400    1.000
    C87      C        0.78400    0.36840    0.58840    1.000
    C88      C        0.81560    0.30720    0.54030    1.000
    C89      C        0.80070    0.23800    0.57350    1.000
    H52      H        0.77200    0.23070    0.63020    1.000
    C90      C        0.85740    0.31620    0.45270    1.000
    H53      H        0.86720    0.36300    0.42620    1.000
    C91      C        0.75040    0.63480    0.64630    1.000
    C92      C        0.76350    0.70970    0.59850    1.000
    C93      C        0.80830    0.72260    0.52020    1.000
    H54      H        0.82850    0.68330    0.49260    1.000
    C94      C        0.82290    0.79100    0.48350    1.000
    H55      H        0.85170    0.79730    0.42670    1.000
    C95      C        0.73720    0.76980    0.64790    1.000
    H56      H        0.70890    0.76360    0.70670    1.000
    C96      C        0.75240    0.83790    0.61080    1.000
    H57      H        0.73300    0.87750    0.64140    1.000
    N19      N        0.92890    0.02080    0.30740    1.000
    N20      N        0.88840    0.91240    0.39060    1.000
    N21      N        0.85000    0.02760    0.43680    1.000
    N22      N        0.89650    0.13180    0.37060    1.000
    H58      H        0.92180    0.14570    0.31870    1.000
    N23      N        0.80960    0.92360    0.50480    1.000
    H59      H        0.78780    0.95440    0.53830    1.000
    N24      N        0.96320    0.90350    0.26170    1.000
    H60      H        0.95820    0.85770    0.27480    1.000
    O19      O        0.17930    0.01240    0.01330    1.000
    O20      O        0.79380    0.43290    0.54080    1.000
    O21      O        0.75140    0.35920    0.68990    1.000
    O22      O        0.71700    0.62210    0.73990    1.000
    O23      O        0.77740    0.58100    0.59360    1.000
    O24      O        0.16180    0.91220    0.85860    1.000
    La4      La       0.24737    0.01396    0.30396    1.000
