# CIF file generated by openbabel 3.1.0, see https://openbabel.org
data_I
_chemical_name_common 'image0'
_cell_length_a 22.256
_cell_length_b 13.489
_cell_length_c 8.868
_cell_angle_alpha 90
_cell_angle_beta 90
_cell_angle_gamma 90
_space_group_name_H-M_alt 'P 1'
_space_group_name_Hall 'P 1'
loop_
    _symmetry_equiv_pos_as_xyz
    x,y,z
loop_
    _atom_site_label
    _atom_site_type_symbol
    _atom_site_fract_x
    _atom_site_fract_y
    _atom_site_fract_z
    _atom_site_occupancy
    N1       N        0.07220    0.29710    0.06300    1.000
    N2       N        0.20940    0.37960    0.06100    1.000
    C1       C        0.04430    0.29800    0.95800    1.000
    C2       C        0.23710    0.39920    0.95700    1.000
    N3       N        0.42780    0.79710    0.93700    1.000
    N4       N        0.29060    0.87960    0.93900    1.000
    C3       C        0.45570    0.79800    0.04200    1.000
    C4       C        0.26290    0.89920    0.04300    1.000
    N5       N        0.92780    0.70290    0.56300    1.000
    N6       N        0.79060    0.62040    0.56100    1.000
    C5       C        0.95570    0.70200    0.45800    1.000
    C6       C        0.76290    0.60080    0.45700    1.000
    N7       N        0.57220    0.20290    0.43700    1.000
    N8       N        0.70940    0.12040    0.43900    1.000
    C7       C        0.54430    0.20200    0.54200    1.000
    C8       C        0.73710    0.10080    0.54300    1.000
    N9       N        0.92780    0.70290    0.93700    1.000
    N10      N        0.79060    0.62040    0.93900    1.000
    C9       C        0.95570    0.70200    0.04200    1.000
    C10      C        0.76290    0.60080    0.04300    1.000
    N11      N        0.57220    0.20290    0.06300    1.000
    N12      N        0.70940    0.12040    0.06100    1.000
    C11      C        0.54430    0.20200    0.95800    1.000
    C12      C        0.73710    0.10080    0.95700    1.000
    N13      N        0.07220    0.29710    0.43700    1.000
    N14      N        0.20940    0.37960    0.43900    1.000
    C13      C        0.04430    0.29800    0.54200    1.000
    C14      C        0.23710    0.39920    0.54300    1.000
    N15      N        0.42780    0.79710    0.56300    1.000
    N16      N        0.29060    0.87960    0.56100    1.000
    C15      C        0.45570    0.79800    0.45800    1.000
    C16      C        0.26290    0.89920    0.45700    1.000
    Cd1      Cd       0.14225    0.33690    0.25000    1.000
    N17      N        0.09790    0.49400    0.25000    1.000
    N18      N        0.17740    0.17500    0.25000    1.000
    C17      C        0.06700    0.55600    0.25000    1.000
    C18      C        0.18970    0.09500    0.25000    1.000
    Cd2      Cd       0.35775    0.83690    0.75000    1.000
    N19      N        0.40210    0.99400    0.75000    1.000
    N20      N        0.32260    0.67500    0.75000    1.000
    C19      C        0.43300    0.05600    0.75000    1.000
    C20      C        0.31030    0.59500    0.75000    1.000
    Cd3      Cd       0.85775    0.66310    0.75000    1.000
    N21      N        0.90210    0.50600    0.75000    1.000
    N22      N        0.82260    0.82500    0.75000    1.000
    C21      C        0.93300    0.44400    0.75000    1.000
    C22      C        0.81030    0.90500    0.75000    1.000
    Cd4      Cd       0.64225    0.16310    0.25000    1.000
    N23      N        0.59790    0.00600    0.25000    1.000
    N24      N        0.67740    0.32500    0.25000    1.000
    C23      C        0.56700    0.94400    0.25000    1.000
    C24      C        0.68970    0.40500    0.25000    1.000
    Cd5      Cd       0.28819    0.43381    0.75000    1.000
    Cd6      Cd       0.99165    0.30630    0.75000    1.000
    C25      C        0.91290    0.19600    0.75000    1.000
    C26      C        0.37020    0.34800    0.75000    1.000
    Cd7      Cd       0.21181    0.93381    0.25000    1.000
    Cd8      Cd       0.50835    0.80630    0.25000    1.000
    C27      C        0.58710    0.69600    0.25000    1.000
    C28      C        0.12980    0.84800    0.25000    1.000
    Cd9      Cd       0.71181    0.56619    0.25000    1.000
    Cd10     Cd       0.00835    0.69370    0.25000    1.000
    C29      C        0.08710    0.80400    0.25000    1.000
    C30      C        0.62980    0.65200    0.25000    1.000
    Cd11     Cd       0.78819    0.06619    0.75000    1.000
    Cd12     Cd       0.49165    0.19370    0.75000    1.000
    C31      C        0.41290    0.30400    0.75000    1.000
    C32      C        0.87020    0.15200    0.75000    1.000
