# CIF file generated by openbabel 3.1.0, see https://openbabel.org
data_I
_chemical_name_common 'image0'
_cell_length_a 18.6679
_cell_length_b 18.6679
_cell_length_c 17.8347
_cell_angle_alpha 90
_cell_angle_beta 90
_cell_angle_gamma 90
_space_group_name_H-M_alt 'P 1'
_space_group_name_Hall 'P 1'
loop_
    _symmetry_equiv_pos_as_xyz
    x,y,z
loop_
    _atom_site_label
    _atom_site_type_symbol
    _atom_site_fract_x
    _atom_site_fract_y
    _atom_site_fract_z
    _atom_site_occupancy
    Cd1      Cd       0.57282    0.43288    0.00611    1.000
    Cl1      Cl       0.54698    0.55606    0.06451    1.000
    O1       O        0.65260    0.47857    0.92151    1.000
    C1       C        0.70950    0.41950    0.81920    1.000
    O2       O        0.63837    0.36253    0.91257    1.000
    C2       C        0.66390    0.41980    0.88870    1.000
    C3       C        0.72330    0.48240    0.78110    1.000
    H1       H        0.70470    0.52520    0.79920    1.000
    C4       C        0.73740    0.35690    0.79140    1.000
    H2       H        0.72730    0.31390    0.81540    1.000
    C5       C        0.78030    0.35700    0.72820    1.000
    H3       H        0.80050    0.31430    0.71140    1.000
    C6       C        0.79330    0.41970    0.69000    1.000
    C7       C        0.84110    0.41990    0.62160    1.000
    C8       C        0.76430    0.48270    0.71670    1.000
    H4       H        0.77240    0.52540    0.69120    1.000
    O3       O        0.87909    0.36682    0.60783    1.000
    O4       O        0.84190    0.47506    0.58071    1.000
    Cd2      Cd       0.92718    0.06712    0.00611    1.000
    Cl2      Cl       0.95302    0.94394    0.06451    1.000
    O5       O        0.84740    0.02143    0.92151    1.000
    C9       C        0.79050    0.08050    0.81920    1.000
    O6       O        0.86163    0.13747    0.91257    1.000
    C10      C        0.83610    0.08020    0.88870    1.000
    C11      C        0.77670    0.01760    0.78110    1.000
    H5       H        0.79530    0.97480    0.79920    1.000
    C12      C        0.76260    0.14310    0.79140    1.000
    H6       H        0.77270    0.18610    0.81540    1.000
    C13      C        0.71970    0.14300    0.72820    1.000
    H7       H        0.69950    0.18570    0.71140    1.000
    C14      C        0.70670    0.08030    0.69000    1.000
    C15      C        0.65890    0.08010    0.62160    1.000
    C16      C        0.73570    0.01730    0.71670    1.000
    H8       H        0.72760    0.97460    0.69120    1.000
    O7       O        0.62091    0.13318    0.60783    1.000
    O8       O        0.65810    0.02494    0.58071    1.000
    Cd3      Cd       0.56712    0.07282    0.50611    1.000
    Cl3      Cl       0.44394    0.04698    0.56451    1.000
    O9       O        0.52143    0.15260    0.42151    1.000
    C17      C        0.58050    0.20950    0.31920    1.000
    O10      O        0.63747    0.13837    0.41257    1.000
    C18      C        0.58020    0.16390    0.38870    1.000
    C19      C        0.51760    0.22330    0.28110    1.000
    H9       H        0.47480    0.20470    0.29920    1.000
    C20      C        0.64310    0.23740    0.29140    1.000
    H10      H        0.68610    0.22730    0.31540    1.000
    C21      C        0.64300    0.28030    0.22820    1.000
    H11      H        0.68570    0.30050    0.21140    1.000
    C22      C        0.58030    0.29330    0.19000    1.000
    C23      C        0.58010    0.34110    0.12160    1.000
    C24      C        0.51730    0.26430    0.21670    1.000
    H12      H        0.47460    0.27240    0.19120    1.000
    O11      O        0.63318    0.37909    0.10783    1.000
    O12      O        0.52494    0.34190    0.08071    1.000
    Cd4      Cd       0.93288    0.42718    0.50611    1.000
    Cl4      Cl       0.05606    0.45302    0.56451    1.000
    O13      O        0.97857    0.34740    0.42151    1.000
    C25      C        0.91950    0.29050    0.31920    1.000
    O14      O        0.86253    0.36163    0.41257    1.000
    C26      C        0.91980    0.33610    0.38870    1.000
    C27      C        0.98240    0.27670    0.28110    1.000
    H13      H        0.02520    0.29530    0.29920    1.000
    C28      C        0.85690    0.26260    0.29140    1.000
    H14      H        0.81390    0.27270    0.31540    1.000
    C29      C        0.85700    0.21970    0.22820    1.000
    H15      H        0.81430    0.19950    0.21140    1.000
    C30      C        0.91970    0.20670    0.19000    1.000
    C31      C        0.91990    0.15890    0.12160    1.000
    C32      C        0.98270    0.23570    0.21670    1.000
    H16      H        0.02540    0.22760    0.19120    1.000
    O15      O        0.86682    0.12091    0.10783    1.000
    O16      O        0.97506    0.15810    0.08071    1.000
    Cd5      Cd       0.42718    0.56712    0.99389    1.000
    Cl5      Cl       0.45302    0.44394    0.93549    1.000
    O17      O        0.34740    0.52143    0.07849    1.000
    C33      C        0.29050    0.58050    0.18080    1.000
    O18      O        0.36163    0.63747    0.08743    1.000
    C34      C        0.33610    0.58020    0.11130    1.000
    C35      C        0.27670    0.51760    0.21890    1.000
    H17      H        0.29530    0.47480    0.20080    1.000
    C36      C        0.26260    0.64310    0.20860    1.000
    H18      H        0.27270    0.68610    0.18460    1.000
    C37      C        0.21970    0.64300    0.27180    1.000
    H19      H        0.19950    0.68570    0.28860    1.000
    C38      C        0.20670    0.58030    0.31000    1.000
    C39      C        0.15890    0.58010    0.37840    1.000
    C40      C        0.23570    0.51730    0.28330    1.000
    H20      H        0.22760    0.47460    0.30880    1.000
    O19      O        0.12091    0.63318    0.39217    1.000
    O20      O        0.15810    0.52494    0.41929    1.000
    Cd6      Cd       0.07282    0.93288    0.99389    1.000
    Cl6      Cl       0.04698    0.05606    0.93549    1.000
    O21      O        0.15260    0.97857    0.07849    1.000
    C41      C        0.20950    0.91950    0.18080    1.000
    O22      O        0.13837    0.86253    0.08743    1.000
    C42      C        0.16390    0.91980    0.11130    1.000
    C43      C        0.22330    0.98240    0.21890    1.000
    H21      H        0.20470    0.02520    0.20080    1.000
    C44      C        0.23740    0.85690    0.20860    1.000
    H22      H        0.22730    0.81390    0.18460    1.000
    C45      C        0.28030    0.85700    0.27180    1.000
    H23      H        0.30050    0.81430    0.28860    1.000
    C46      C        0.29330    0.91970    0.31000    1.000
    C47      C        0.34110    0.91990    0.37840    1.000
    C48      C        0.26430    0.98270    0.28330    1.000
    H24      H        0.27240    0.02540    0.30880    1.000
    O23      O        0.37909    0.86682    0.39217    1.000
    O24      O        0.34190    0.97506    0.41929    1.000
    Cd7      Cd       0.43288    0.92718    0.49389    1.000
    Cl7      Cl       0.55606    0.95302    0.43549    1.000
    O25      O        0.47857    0.84740    0.57849    1.000
    C49      C        0.41950    0.79050    0.68080    1.000
    O26      O        0.36253    0.86163    0.58743    1.000
    C50      C        0.41980    0.83610    0.61130    1.000
    C51      C        0.48240    0.77670    0.71890    1.000
    H25      H        0.52520    0.79530    0.70080    1.000
    C52      C        0.35690    0.76260    0.70860    1.000
    H26      H        0.31390    0.77270    0.68460    1.000
    C53      C        0.35700    0.71970    0.77180    1.000
    H27      H        0.31430    0.69950    0.78860    1.000
    C54      C        0.41970    0.70670    0.81000    1.000
    C55      C        0.41990    0.65890    0.87840    1.000
    C56      C        0.48270    0.73570    0.78330    1.000
    H28      H        0.52540    0.72760    0.80880    1.000
    O27      O        0.36682    0.62091    0.89217    1.000
    O28      O        0.47506    0.65810    0.91929    1.000
    Cd8      Cd       0.06712    0.57282    0.49389    1.000
    Cl8      Cl       0.94394    0.54698    0.43549    1.000
    O29      O        0.02143    0.65260    0.57849    1.000
    C57      C        0.08050    0.70950    0.68080    1.000
    O30      O        0.13747    0.63837    0.58743    1.000
    C58      C        0.08020    0.66390    0.61130    1.000
    C59      C        0.01760    0.72330    0.71890    1.000
    H29      H        0.97480    0.70470    0.70080    1.000
    C60      C        0.14310    0.73740    0.70860    1.000
    H30      H        0.18610    0.72730    0.68460    1.000
    C61      C        0.14300    0.78030    0.77180    1.000
    H31      H        0.18570    0.80050    0.78860    1.000
    C62      C        0.08030    0.79330    0.81000    1.000
    C63      C        0.08010    0.84110    0.87840    1.000
    C64      C        0.01730    0.76430    0.78330    1.000
    H32      H        0.97460    0.77240    0.80880    1.000
    O31      O        0.13318    0.87909    0.89217    1.000
    O32      O        0.02494    0.84190    0.91929    1.000
