# CIF file generated by openbabel 3.1.0, see https://openbabel.org
data_I
_chemical_name_common 'image0'
_cell_length_a 17.1065
_cell_length_b 17.1065
_cell_length_c 17.1065
_cell_angle_alpha 90
_cell_angle_beta 90
_cell_angle_gamma 90
_space_group_name_H-M_alt 'P 1'
_space_group_name_Hall 'P 1'
loop_
    _symmetry_equiv_pos_as_xyz
    x,y,z
loop_
    _atom_site_label
    _atom_site_type_symbol
    _atom_site_fract_x
    _atom_site_fract_y
    _atom_site_fract_z
    _atom_site_occupancy
    N1       N        0.93800    0.39560    0.22940    1.000
    N2       N        0.92070    0.44610    0.17380    1.000
    N3       N        0.01080    0.36700    0.21460    1.000
    N4       N        0.97910    0.45040    0.12110    1.000
    C1       C        0.03280    0.40340    0.14950    1.000
    N5       N        0.56200    0.10440    0.22940    1.000
    N6       N        0.57930    0.05390    0.17380    1.000
    N7       N        0.48920    0.13300    0.21460    1.000
    N8       N        0.52090    0.04960    0.12110    1.000
    C2       C        0.46720    0.09660    0.14950    1.000
    N9       N        0.56200    0.39560    0.27060    1.000
    N10      N        0.57930    0.44610    0.32620    1.000
    N11      N        0.48920    0.36700    0.28540    1.000
    N12      N        0.52090    0.45040    0.37890    1.000
    C3       C        0.46720    0.40340    0.35050    1.000
    N13      N        0.93800    0.10440    0.27060    1.000
    N14      N        0.92070    0.05390    0.32620    1.000
    N15      N        0.01080    0.13300    0.28540    1.000
    N16      N        0.97910    0.04960    0.37890    1.000
    C4       C        0.03280    0.09660    0.35050    1.000
    N17      N        0.22940    0.93800    0.39560    1.000
    N18      N        0.17380    0.92070    0.44610    1.000
    N19      N        0.21460    0.01080    0.36700    1.000
    N20      N        0.12110    0.97910    0.45040    1.000
    C5       C        0.14950    0.03280    0.40340    1.000
    N21      N        0.22940    0.56200    0.10440    1.000
    N22      N        0.17380    0.57930    0.05390    1.000
    N23      N        0.21460    0.48920    0.13300    1.000
    N24      N        0.12110    0.52090    0.04960    1.000
    C6       C        0.14950    0.46720    0.09660    1.000
    N25      N        0.27060    0.56200    0.39560    1.000
    N26      N        0.32620    0.57930    0.44610    1.000
    N27      N        0.28540    0.48920    0.36700    1.000
    N28      N        0.37890    0.52090    0.45040    1.000
    C7       C        0.35050    0.46720    0.40340    1.000
    N29      N        0.27060    0.93800    0.10440    1.000
    N30      N        0.32620    0.92070    0.05390    1.000
    N31      N        0.28540    0.01080    0.13300    1.000
    N32      N        0.37890    0.97910    0.04960    1.000
    C8       C        0.35050    0.03280    0.09660    1.000
    N33      N        0.39560    0.22940    0.93800    1.000
    N34      N        0.44610    0.17380    0.92070    1.000
    N35      N        0.36700    0.21460    0.01080    1.000
    N36      N        0.45040    0.12110    0.97910    1.000
    C9       C        0.40340    0.14950    0.03280    1.000
    N37      N        0.10440    0.22940    0.56200    1.000
    N38      N        0.05390    0.17380    0.57930    1.000
    N39      N        0.13300    0.21460    0.48920    1.000
    N40      N        0.04960    0.12110    0.52090    1.000
    C10      C        0.09660    0.14950    0.46720    1.000
    N41      N        0.39560    0.27060    0.56200    1.000
    N42      N        0.44610    0.32620    0.57930    1.000
    N43      N        0.36700    0.28540    0.48920    1.000
    N44      N        0.45040    0.37890    0.52090    1.000
    C11      C        0.40340    0.35050    0.46720    1.000
    N45      N        0.10440    0.27060    0.93800    1.000
    N46      N        0.05390    0.32620    0.92070    1.000
    N47      N        0.13300    0.28540    0.01080    1.000
    N48      N        0.04960    0.37890    0.97910    1.000
    C12      C        0.09660    0.35050    0.03280    1.000
    N49      N        0.39560    0.93800    0.27060    1.000
    N50      N        0.44610    0.92070    0.32620    1.000
    N51      N        0.36700    0.01080    0.28540    1.000
    N52      N        0.45040    0.97910    0.37890    1.000
    C13      C        0.40340    0.03280    0.35050    1.000
    N53      N        0.10440    0.56200    0.27060    1.000
    N54      N        0.05390    0.57930    0.32620    1.000
    N55      N        0.13300    0.48920    0.28540    1.000
    N56      N        0.04960    0.52090    0.37890    1.000
    C14      C        0.09660    0.46720    0.35050    1.000
    N57      N        0.39560    0.56200    0.22940    1.000
    N58      N        0.44610    0.57930    0.17380    1.000
    N59      N        0.36700    0.48920    0.21460    1.000
    N60      N        0.45040    0.52090    0.12110    1.000
    C15      C        0.40340    0.46720    0.14950    1.000
    N61      N        0.10440    0.93800    0.22940    1.000
    N62      N        0.05390    0.92070    0.17380    1.000
    N63      N        0.13300    0.01080    0.21460    1.000
    N64      N        0.04960    0.97910    0.12110    1.000
    C16      C        0.09660    0.03280    0.14950    1.000
    N65      N        0.93800    0.22940    0.10440    1.000
    N66      N        0.92070    0.17380    0.05390    1.000
    N67      N        0.01080    0.21460    0.13300    1.000
    N68      N        0.97910    0.12110    0.04960    1.000
    C17      C        0.03280    0.14950    0.09660    1.000
    N69      N        0.56200    0.22940    0.39560    1.000
    N70      N        0.57930    0.17380    0.44610    1.000
    N71      N        0.48920    0.21460    0.36700    1.000
    N72      N        0.52090    0.12110    0.45040    1.000
    C18      C        0.46720    0.14950    0.40340    1.000
    N73      N        0.56200    0.27060    0.10440    1.000
    N74      N        0.57930    0.32620    0.05390    1.000
    N75      N        0.48920    0.28540    0.13300    1.000
    N76      N        0.52090    0.37890    0.04960    1.000
    C19      C        0.46720    0.35050    0.09660    1.000
    N77      N        0.93800    0.27060    0.39560    1.000
    N78      N        0.92070    0.32620    0.44610    1.000
    N79      N        0.01080    0.28540    0.36700    1.000
    N80      N        0.97910    0.37890    0.45040    1.000
    C20      C        0.03280    0.35050    0.40340    1.000
    N81      N        0.22940    0.39560    0.56200    1.000
    N82      N        0.17380    0.44610    0.57930    1.000
    N83      N        0.21460    0.36700    0.48920    1.000
    N84      N        0.12110    0.45040    0.52090    1.000
    C21      C        0.14950    0.40340    0.46720    1.000
    N85      N        0.22940    0.10440    0.93800    1.000
    N86      N        0.17380    0.05390    0.92070    1.000
    N87      N        0.21460    0.13300    0.01080    1.000
    N88      N        0.12110    0.04960    0.97910    1.000
    C22      C        0.14950    0.09660    0.03280    1.000
    N89      N        0.27060    0.39560    0.93800    1.000
    N90      N        0.32620    0.44610    0.92070    1.000
    N91      N        0.28540    0.36700    0.01080    1.000
    N92      N        0.37890    0.45040    0.97910    1.000
    C23      C        0.35050    0.40340    0.03280    1.000
    N93      N        0.27060    0.10440    0.56200    1.000
    N94      N        0.32620    0.05390    0.57930    1.000
    N95      N        0.28540    0.13300    0.48920    1.000
    N96      N        0.37890    0.04960    0.52090    1.000
    C24      C        0.35050    0.09660    0.46720    1.000
    N97      N        0.06200    0.60440    0.77060    1.000
    N98      N        0.07930    0.55390    0.82620    1.000
    N99      N        0.98920    0.63300    0.78540    1.000
    N100     N        0.02090    0.54960    0.87890    1.000
    C25      C        0.96720    0.59660    0.85050    1.000
    N101     N        0.43800    0.89560    0.77060    1.000
    N102     N        0.42070    0.94610    0.82620    1.000
    N103     N        0.51080    0.86700    0.78540    1.000
    N104     N        0.47910    0.95040    0.87890    1.000
    C26      C        0.53280    0.90340    0.85050    1.000
    N105     N        0.43800    0.60440    0.72940    1.000
    N106     N        0.42070    0.55390    0.67380    1.000
    N107     N        0.51080    0.63300    0.71460    1.000
    N108     N        0.47910    0.54960    0.62110    1.000
    C27      C        0.53280    0.59660    0.64950    1.000
    N109     N        0.06200    0.89560    0.72940    1.000
    N110     N        0.07930    0.94610    0.67380    1.000
    N111     N        0.98920    0.86700    0.71460    1.000
    N112     N        0.02090    0.95040    0.62110    1.000
    C28      C        0.96720    0.90340    0.64950    1.000
    N113     N        0.77060    0.06200    0.60440    1.000
    N114     N        0.82620    0.07930    0.55390    1.000
    N115     N        0.78540    0.98920    0.63300    1.000
    N116     N        0.87890    0.02090    0.54960    1.000
    C29      C        0.85050    0.96720    0.59660    1.000
    N117     N        0.77060    0.43800    0.89560    1.000
    N118     N        0.82620    0.42070    0.94610    1.000
    N119     N        0.78540    0.51080    0.86700    1.000
    N120     N        0.87890    0.47910    0.95040    1.000
    C30      C        0.85050    0.53280    0.90340    1.000
    N121     N        0.72940    0.43800    0.60440    1.000
    N122     N        0.67380    0.42070    0.55390    1.000
    N123     N        0.71460    0.51080    0.63300    1.000
    N124     N        0.62110    0.47910    0.54960    1.000
    C31      C        0.64950    0.53280    0.59660    1.000
    N125     N        0.72940    0.06200    0.89560    1.000
    N126     N        0.67380    0.07930    0.94610    1.000
    N127     N        0.71460    0.98920    0.86700    1.000
    N128     N        0.62110    0.02090    0.95040    1.000
    C32      C        0.64950    0.96720    0.90340    1.000
    N129     N        0.60440    0.77060    0.06200    1.000
    N130     N        0.55390    0.82620    0.07930    1.000
    N131     N        0.63300    0.78540    0.98920    1.000
    N132     N        0.54960    0.87890    0.02090    1.000
    C33      C        0.59660    0.85050    0.96720    1.000
    N133     N        0.89560    0.77060    0.43800    1.000
    N134     N        0.94610    0.82620    0.42070    1.000
    N135     N        0.86700    0.78540    0.51080    1.000
    N136     N        0.95040    0.87890    0.47910    1.000
    C34      C        0.90340    0.85050    0.53280    1.000
    N137     N        0.60440    0.72940    0.43800    1.000
    N138     N        0.55390    0.67380    0.42070    1.000
    N139     N        0.63300    0.71460    0.51080    1.000
    N140     N        0.54960    0.62110    0.47910    1.000
    C35      C        0.59660    0.64950    0.53280    1.000
    N141     N        0.89560    0.72940    0.06200    1.000
    N142     N        0.94610    0.67380    0.07930    1.000
    N143     N        0.86700    0.71460    0.98920    1.000
    N144     N        0.95040    0.62110    0.02090    1.000
    C36      C        0.90340    0.64950    0.96720    1.000
    N145     N        0.60440    0.06200    0.72940    1.000
    N146     N        0.55390    0.07930    0.67380    1.000
    N147     N        0.63300    0.98920    0.71460    1.000
    N148     N        0.54960    0.02090    0.62110    1.000
    C37      C        0.59660    0.96720    0.64950    1.000
    N149     N        0.89560    0.43800    0.72940    1.000
    N150     N        0.94610    0.42070    0.67380    1.000
    N151     N        0.86700    0.51080    0.71460    1.000
    N152     N        0.95040    0.47910    0.62110    1.000
    C38      C        0.90340    0.53280    0.64950    1.000
    N153     N        0.60440    0.43800    0.77060    1.000
    N154     N        0.55390    0.42070    0.82620    1.000
    N155     N        0.63300    0.51080    0.78540    1.000
    N156     N        0.54960    0.47910    0.87890    1.000
    C39      C        0.59660    0.53280    0.85050    1.000
    N157     N        0.89560    0.06200    0.77060    1.000
    N158     N        0.94610    0.07930    0.82620    1.000
    N159     N        0.86700    0.98920    0.78540    1.000
    N160     N        0.95040    0.02090    0.87890    1.000
    C40      C        0.90340    0.96720    0.85050    1.000
    N161     N        0.06200    0.77060    0.89560    1.000
    N162     N        0.07930    0.82620    0.94610    1.000
    N163     N        0.98920    0.78540    0.86700    1.000
    N164     N        0.02090    0.87890    0.95040    1.000
    C41      C        0.96720    0.85050    0.90340    1.000
    N165     N        0.43800    0.77060    0.60440    1.000
    N166     N        0.42070    0.82620    0.55390    1.000
    N167     N        0.51080    0.78540    0.63300    1.000
    N168     N        0.47910    0.87890    0.54960    1.000
    C42      C        0.53280    0.85050    0.59660    1.000
    N169     N        0.43800    0.72940    0.89560    1.000
    N170     N        0.42070    0.67380    0.94610    1.000
    N171     N        0.51080    0.71460    0.86700    1.000
    N172     N        0.47910    0.62110    0.95040    1.000
    C43      C        0.53280    0.64950    0.90340    1.000
    N173     N        0.06200    0.72940    0.60440    1.000
    N174     N        0.07930    0.67380    0.55390    1.000
    N175     N        0.98920    0.71460    0.63300    1.000
    N176     N        0.02090    0.62110    0.54960    1.000
    C44      C        0.96720    0.64950    0.59660    1.000
    N177     N        0.77060    0.60440    0.43800    1.000
    N178     N        0.82620    0.55390    0.42070    1.000
    N179     N        0.78540    0.63300    0.51080    1.000
    N180     N        0.87890    0.54960    0.47910    1.000
    C45      C        0.85050    0.59660    0.53280    1.000
    N181     N        0.77060    0.89560    0.06200    1.000
    N182     N        0.82620    0.94610    0.07930    1.000
    N183     N        0.78540    0.86700    0.98920    1.000
    N184     N        0.87890    0.95040    0.02090    1.000
    C46      C        0.85050    0.90340    0.96720    1.000
    N185     N        0.72940    0.60440    0.06200    1.000
    N186     N        0.67380    0.55390    0.07930    1.000
    N187     N        0.71460    0.63300    0.98920    1.000
    N188     N        0.62110    0.54960    0.02090    1.000
    C47      C        0.64950    0.59660    0.96720    1.000
    N189     N        0.72940    0.89560    0.43800    1.000
    N190     N        0.67380    0.94610    0.42070    1.000
    N191     N        0.71460    0.86700    0.51080    1.000
    N192     N        0.62110    0.95040    0.47910    1.000
    C48      C        0.64950    0.90340    0.53280    1.000
    Gd1      Gd       0.09161    0.25000    0.25000    1.000
    Gd2      Gd       0.40839    0.25000    0.25000    1.000
    Gd3      Gd       0.25000    0.09161    0.25000    1.000
    Gd4      Gd       0.25000    0.40839    0.25000    1.000
    Gd5      Gd       0.25000    0.25000    0.09161    1.000
    Gd6      Gd       0.25000    0.25000    0.40839    1.000
    Gd7      Gd       0.90839    0.75000    0.75000    1.000
    Gd8      Gd       0.59161    0.75000    0.75000    1.000
    Gd9      Gd       0.75000    0.90839    0.75000    1.000
    Gd10     Gd       0.75000    0.59161    0.75000    1.000
    Gd11     Gd       0.75000    0.75000    0.90839    1.000
    Gd12     Gd       0.75000    0.75000    0.59161    1.000
    C49      C        0.11060    0.38940    0.11060    1.000
    O1       O        0.15760    0.34240    0.15760    1.000
    C50      C        0.38940    0.11060    0.11060    1.000
    O2       O        0.34240    0.15760    0.15760    1.000
    C51      C        0.38940    0.38940    0.38940    1.000
    O3       O        0.34240    0.34240    0.34240    1.000
    C52      C        0.11060    0.11060    0.38940    1.000
    O4       O        0.15760    0.15760    0.34240    1.000
    C53      C        0.38940    0.11060    0.38940    1.000
    O5       O        0.34240    0.15760    0.34240    1.000
    C54      C        0.11060    0.38940    0.38940    1.000
    O6       O        0.15760    0.34240    0.34240    1.000
    C55      C        0.38940    0.38940    0.11060    1.000
    O7       O        0.34240    0.34240    0.15760    1.000
    C56      C        0.11060    0.11060    0.11060    1.000
    O8       O        0.15760    0.15760    0.15760    1.000
    C57      C        0.88940    0.61060    0.88940    1.000
    O9       O        0.84240    0.65760    0.84240    1.000
    C58      C        0.61060    0.88940    0.88940    1.000
    O10      O        0.65760    0.84240    0.84240    1.000
    C59      C        0.61060    0.61060    0.61060    1.000
    O11      O        0.65760    0.65760    0.65760    1.000
    C60      C        0.88940    0.88940    0.61060    1.000
    O12      O        0.84240    0.84240    0.65760    1.000
    C61      C        0.61060    0.88940    0.61060    1.000
    O13      O        0.65760    0.84240    0.65760    1.000
    C62      C        0.88940    0.61060    0.61060    1.000
    O14      O        0.84240    0.65760    0.65760    1.000
    C63      C        0.61060    0.61060    0.88940    1.000
    O15      O        0.65760    0.65760    0.84240    1.000
    C64      C        0.88940    0.88940    0.88940    1.000
    O16      O        0.84240    0.84240    0.84240    1.000
    Mn1      Mn       0.00000    0.50000    0.00000    1.000
    Mn2      Mn       0.50000    0.00000    0.00000    1.000
    Mn3      Mn       0.50000    0.50000    0.50000    1.000
    Mn4      Mn       0.00000    0.00000    0.50000    1.000
    Mn5      Mn       0.50000    0.00000    0.50000    1.000
    Mn6      Mn       0.00000    0.50000    0.50000    1.000
    Mn7      Mn       0.50000    0.50000    0.00000    1.000
    Mn8      Mn       0.00000    0.00000    0.00000    1.000
