# CIF file generated by openbabel 3.1.0, see https://openbabel.org
data_I
_chemical_name_common 'image0'
_cell_length_a 15.6304
_cell_length_b 17.7732
_cell_length_c 17.2482
_cell_angle_alpha 90
_cell_angle_beta 91.591
_cell_angle_gamma 90
_space_group_name_H-M_alt 'P 1'
_space_group_name_Hall 'P 1'
loop_
    _symmetry_equiv_pos_as_xyz
    x,y,z
loop_
    _atom_site_label
    _atom_site_type_symbol
    _atom_site_fract_x
    _atom_site_fract_y
    _atom_site_fract_z
    _atom_site_occupancy
    Zn1      Zn       0.46970    0.64139    0.67501    1.000
    Zn2      Zn       0.46567    0.67756    0.26537    1.000
    N1       N        0.38020    0.70140    0.73200    1.000
    N2       N        0.30660    0.76260    0.81760    1.000
    N3       N        0.30590    0.78180    0.10110    1.000
    N4       N        0.37740    0.72720    0.19670    1.000
    N5       N        0.09120    0.06730    0.89500    1.000
    N6       N        0.17400    0.97400    0.94300    1.000
    O1       O        0.55150    0.70200    0.61860    1.000
    O2       O        0.44150    0.75270    0.55970    1.000
    O3       O        0.52410    0.75660    0.32700    1.000
    O4       O        0.52170    0.67920    0.42840    1.000
    O5       O        0.95540    0.09700    0.26330    1.000
    O6       O        0.92770    0.18090    0.35260    1.000
    O7       O        0.96670    0.09590    0.73600    1.000
    O8       O        0.89850    0.03750    0.83000    1.000
    C1       C        0.52130    0.74240    0.56830    1.000
    C2       C        0.58160    0.79290    0.52560    1.000
    C3       C        0.63300    0.84170    0.57280    1.000
    H1       H        0.62970    0.83920    0.62650    1.000
    C4       C        0.68920    0.89400    0.53900    1.000
    C5       C        0.68920    0.90140    0.45900    1.000
    C6       C        0.63830    0.85150    0.41210    1.000
    H2       H        0.63990    0.85520    0.35830    1.000
    C7       C        0.58540    0.79670    0.44550    1.000
    C8       C        0.54030    0.74090    0.39660    1.000
    C9       C        0.74230    0.95990    0.41950    1.000
    C10      C        0.79560    0.93990    0.36160    1.000
    H3       H        0.79430    0.89080    0.34310    1.000
    C11      C        0.85150    0.99120    0.32990    1.000
    H4       H        0.88880    0.97590    0.29180    1.000
    C12      C        0.85170    0.06650    0.35560    1.000
    C13      C        0.79730    0.08680    0.41140    1.000
    H5       H        0.79800    0.13630    0.42920    1.000
    C14      C        0.74050    0.03610    0.44300    1.000
    H6       H        0.70150    0.05210    0.47930    1.000
    C15      C        0.91520    0.12020    0.32200    1.000
    C16      C        0.74730    0.93620    0.59320    1.000
    C17      C        0.71720    0.96230    0.66230    1.000
    H7       H        0.66010    0.95480    0.67390    1.000
    C18      C        0.77030    0.99950    0.71460    1.000
    H8       H        0.74830    0.01560    0.76130    1.000
    C19      C        0.85160    0.01290    0.70030    1.000
    C20      C        0.88550    0.98620    0.63050    1.000
    H9       H        0.94270    0.99410    0.61950    1.000
    C21      C        0.83260    0.94860    0.57930    1.000
    H10      H        0.85500    0.93070    0.53340    1.000
    C22      C        0.90980    0.05120    0.75990    1.000
    C23      C        0.29670    0.71400    0.70340    1.000
    H11      H        0.27490    0.69770    0.65560    1.000
    C24      C        0.25440    0.75200    0.75410    1.000
    H12      H        0.19840    0.76900    0.74810    1.000
    C25      C        0.38200    0.73080    0.80020    1.000
    H13      H        0.42970    0.73020    0.83360    1.000
    C26      C        0.28470    0.80060    0.88890    1.000
    C27      C        0.30880    0.77360    0.95980    1.000
    H14      H        0.34190    0.73020    0.96380    1.000
    C28      C        0.28420    0.81050    0.02570    1.000
    C29      C        0.23350    0.87720    0.02000    1.000
    H15      H        0.21770    0.90280    0.06430    1.000
    C30      C        0.20930    0.90200    0.94960    1.000
    C31      C        0.23570    0.86810    0.88110    1.000
    H16      H        0.22200    0.88860    0.83270    1.000
    C32      C        0.37840    0.74380    0.12420    1.000
    H17      H        0.42270    0.73150    0.09160    1.000
    C33      C        0.30050    0.75250    0.22280    1.000
    H18      H        0.28200    0.74650    0.27320    1.000
    C34      C        0.25700    0.78600    0.16760    1.000
    H19      H        0.20360    0.80840    0.17160    1.000
    C35      C        0.12980    0.00590    0.88480    1.000
    H20      H        0.14810    0.99300    0.83570    1.000
    C36      C        0.19070    0.04050    0.99160    1.000
    H21      H        0.22720    0.04300    0.03510    1.000
    C37      C        0.14320    0.09760    0.96100    1.000
    H22      H        0.14330    0.14710    0.97840    1.000
    N7       N        0.14300    0.96300    0.94100    1.000
    C38      C        0.08250    0.97890    0.99300    1.000
    H23      H        0.06860    0.95290    0.03770    1.000
    C39      C        0.04680    0.04370    0.96250    1.000
    H24      H        0.00030    0.06870    0.98290    1.000
    Zn3      Zn       0.03030    0.14139    0.82499    1.000
    Zn4      Zn       0.03433    0.17756    0.23463    1.000
    N8       N        0.11980    0.20140    0.76800    1.000
    N9       N        0.19340    0.26260    0.68240    1.000
    N10      N        0.19410    0.28180    0.39890    1.000
    N11      N        0.12260    0.22720    0.30330    1.000
    N12      N        0.40880    0.56730    0.60500    1.000
    N13      N        0.32600    0.47400    0.55700    1.000
    O9       O        0.94850    0.20200    0.88140    1.000
    O10      O        0.05850    0.25270    0.94030    1.000
    O11      O        0.97590    0.25660    0.17300    1.000
    O12      O        0.97830    0.17920    0.07160    1.000
    O13      O        0.54460    0.59700    0.23670    1.000
    O14      O        0.57230    0.68090    0.14740    1.000
    O15      O        0.53330    0.59590    0.76400    1.000
    O16      O        0.60150    0.53750    0.67000    1.000
    C40      C        0.97870    0.24240    0.93170    1.000
    C41      C        0.91840    0.29290    0.97440    1.000
    C42      C        0.86700    0.34170    0.92720    1.000
    H25      H        0.87030    0.33920    0.87350    1.000
    C43      C        0.81080    0.39400    0.96100    1.000
    C44      C        0.81080    0.40140    0.04100    1.000
    C45      C        0.86170    0.35150    0.08790    1.000
    H26      H        0.86010    0.35520    0.14170    1.000
    C46      C        0.91460    0.29670    0.05450    1.000
    C47      C        0.95970    0.24090    0.10340    1.000
    C48      C        0.75770    0.45990    0.08050    1.000
    C49      C        0.70440    0.43990    0.13840    1.000
    H27      H        0.70570    0.39080    0.15690    1.000
    C50      C        0.64850    0.49120    0.17010    1.000
    H28      H        0.61120    0.47590    0.20820    1.000
    C51      C        0.64830    0.56650    0.14440    1.000
    C52      C        0.70270    0.58680    0.08860    1.000
    H29      H        0.70200    0.63630    0.07080    1.000
    C53      C        0.75950    0.53610    0.05700    1.000
    H30      H        0.79850    0.55210    0.02070    1.000
    C54      C        0.58480    0.62020    0.17800    1.000
    C55      C        0.75270    0.43620    0.90680    1.000
    C56      C        0.78280    0.46230    0.83770    1.000
    H31      H        0.83990    0.45480    0.82610    1.000
    C57      C        0.72970    0.49950    0.78540    1.000
    H32      H        0.75170    0.51560    0.73870    1.000
    C58      C        0.64840    0.51290    0.79970    1.000
    C59      C        0.61450    0.48620    0.86950    1.000
    H33      H        0.55730    0.49410    0.88050    1.000
    C60      C        0.66740    0.44860    0.92070    1.000
    H34      H        0.64500    0.43070    0.96660    1.000
    C61      C        0.59020    0.55120    0.74010    1.000
    C62      C        0.20330    0.21400    0.79660    1.000
    H35      H        0.22510    0.19770    0.84440    1.000
    C63      C        0.24560    0.25200    0.74590    1.000
    H36      H        0.30160    0.26900    0.75190    1.000
    C64      C        0.11800    0.23080    0.69980    1.000
    H37      H        0.07030    0.23020    0.66640    1.000
    C65      C        0.21530    0.30060    0.61110    1.000
    C66      C        0.19120    0.27360    0.54020    1.000
    H38      H        0.15810    0.23020    0.53620    1.000
    C67      C        0.21580    0.31050    0.47430    1.000
    C68      C        0.26650    0.37720    0.48000    1.000
    H39      H        0.28230    0.40280    0.43570    1.000
    C69      C        0.29070    0.40200    0.55040    1.000
    C70      C        0.26430    0.36810    0.61890    1.000
    H40      H        0.27800    0.38860    0.66730    1.000
    C71      C        0.12160    0.24380    0.37580    1.000
    H41      H        0.07730    0.23150    0.40840    1.000
    C72      C        0.19950    0.25250    0.27720    1.000
    H42      H        0.21800    0.24650    0.22680    1.000
    C73      C        0.24300    0.28600    0.33240    1.000
    H43      H        0.29640    0.30840    0.32840    1.000
    C74      C        0.37020    0.50590    0.61520    1.000
    H44      H        0.35190    0.49300    0.66430    1.000
    C75      C        0.30930    0.54050    0.50840    1.000
    H45      H        0.27280    0.54300    0.46490    1.000
    C76      C        0.35680    0.59760    0.53900    1.000
    H46      H        0.35670    0.64710    0.52160    1.000
    N14      N        0.35700    0.46300    0.55900    1.000
    C77      C        0.41750    0.47890    0.50700    1.000
    H47      H        0.43140    0.45290    0.46230    1.000
    C78      C        0.45320    0.54370    0.53750    1.000
    H48      H        0.49970    0.56870    0.51710    1.000
    Zn5      Zn       0.53030    0.35861    0.32499    1.000
    Zn6      Zn       0.53433    0.32244    0.73463    1.000
    N15      N        0.61980    0.29860    0.26800    1.000
    N16      N        0.69340    0.23740    0.18240    1.000
    N17      N        0.69410    0.21820    0.89890    1.000
    N18      N        0.62260    0.27280    0.80330    1.000
    N19      N        0.90880    0.93270    0.10500    1.000
    N20      N        0.82600    0.02600    0.05700    1.000
    O17      O        0.44850    0.29800    0.38140    1.000
    O18      O        0.55850    0.24730    0.44030    1.000
    O19      O        0.47590    0.24340    0.67300    1.000
    O20      O        0.47830    0.32080    0.57160    1.000
    O21      O        0.04460    0.90300    0.73670    1.000
    O22      O        0.07230    0.81910    0.64740    1.000
    O23      O        0.03330    0.90410    0.26400    1.000
    O24      O        0.10150    0.96250    0.17000    1.000
    C79      C        0.47870    0.25760    0.43170    1.000
    C80      C        0.41840    0.20710    0.47440    1.000
    C81      C        0.36700    0.15830    0.42720    1.000
    H49      H        0.37030    0.16080    0.37350    1.000
    C82      C        0.31080    0.10600    0.46100    1.000
    C83      C        0.31080    0.09860    0.54100    1.000
    C84      C        0.36170    0.14850    0.58790    1.000
    H50      H        0.36010    0.14480    0.64170    1.000
    C85      C        0.41460    0.20330    0.55450    1.000
    C86      C        0.45970    0.25910    0.60340    1.000
    C87      C        0.25770    0.04010    0.58050    1.000
    C88      C        0.20440    0.06010    0.63840    1.000
    H51      H        0.20570    0.10920    0.65690    1.000
    C89      C        0.14850    0.00880    0.67010    1.000
    H52      H        0.11120    0.02410    0.70820    1.000
    C90      C        0.14830    0.93350    0.64440    1.000
    C91      C        0.20270    0.91320    0.58860    1.000
    H53      H        0.20200    0.86370    0.57080    1.000
    C92      C        0.25950    0.96390    0.55700    1.000
    H54      H        0.29850    0.94790    0.52070    1.000
    C93      C        0.08480    0.87980    0.67800    1.000
    C94      C        0.25270    0.06380    0.40680    1.000
    C95      C        0.28280    0.03770    0.33770    1.000
    H55      H        0.33990    0.04520    0.32610    1.000
    C96      C        0.22970    0.00050    0.28540    1.000
    H56      H        0.25170    0.98440    0.23870    1.000
    C97      C        0.14840    0.98710    0.29970    1.000
    C98      C        0.11450    0.01380    0.36950    1.000
    H57      H        0.05730    0.00590    0.38050    1.000
    C99      C        0.16740    0.05140    0.42070    1.000
    H58      H        0.14500    0.06930    0.46660    1.000
    C100     C        0.09020    0.94880    0.24010    1.000
    C101     C        0.70330    0.28600    0.29660    1.000
    H59      H        0.72510    0.30230    0.34440    1.000
    C102     C        0.74560    0.24800    0.24590    1.000
    H60      H        0.80160    0.23100    0.25190    1.000
    C103     C        0.61800    0.26920    0.19980    1.000
    H61      H        0.57030    0.26980    0.16640    1.000
    C104     C        0.71530    0.19940    0.11110    1.000
    C105     C        0.69120    0.22640    0.04020    1.000
    H62      H        0.65810    0.26980    0.03620    1.000
    C106     C        0.71580    0.18950    0.97430    1.000
    C107     C        0.76650    0.12280    0.98000    1.000
    H63      H        0.78230    0.09720    0.93570    1.000
    C108     C        0.79070    0.09800    0.05040    1.000
    C109     C        0.76430    0.13190    0.11890    1.000
    H64      H        0.77800    0.11140    0.16730    1.000
    C110     C        0.62160    0.25620    0.87580    1.000
    H65      H        0.57730    0.26850    0.90840    1.000
    C111     C        0.69950    0.24750    0.77720    1.000
    H66      H        0.71800    0.25350    0.72680    1.000
    C112     C        0.74300    0.21400    0.83240    1.000
    H67      H        0.79640    0.19160    0.82840    1.000
    C113     C        0.87020    0.99410    0.11520    1.000
    H68      H        0.85190    0.00700    0.16430    1.000
    C114     C        0.80930    0.95950    0.00840    1.000
    H69      H        0.77280    0.95700    0.96490    1.000
    C115     C        0.85680    0.90240    0.03900    1.000
    H70      H        0.85670    0.85290    0.02160    1.000
    N21      N        0.85700    0.03700    0.05900    1.000
    C116     C        0.91750    0.02110    0.00700    1.000
    H71      H        0.93140    0.04710    0.96230    1.000
    C117     C        0.95320    0.95630    0.03750    1.000
    H72      H        0.99970    0.93130    0.01710    1.000
    Zn7      Zn       0.96970    0.85861    0.17501    1.000
    Zn8      Zn       0.96567    0.82244    0.76537    1.000
    N22      N        0.88020    0.79860    0.23200    1.000
    N23      N        0.80660    0.73740    0.31760    1.000
    N24      N        0.80590    0.71820    0.60110    1.000
    N25      N        0.87740    0.77280    0.69670    1.000
    N26      N        0.59120    0.43270    0.39500    1.000
    N27      N        0.67400    0.52600    0.44300    1.000
    O25      O        0.05150    0.79800    0.11860    1.000
    O26      O        0.94150    0.74730    0.05970    1.000
    O27      O        0.02410    0.74340    0.82700    1.000
    O28      O        0.02170    0.82080    0.92840    1.000
    O29      O        0.45540    0.40300    0.76330    1.000
    O30      O        0.42770    0.31910    0.85260    1.000
    O31      O        0.46670    0.40410    0.23600    1.000
    O32      O        0.39850    0.46250    0.33000    1.000
    C118     C        0.02130    0.75760    0.06830    1.000
    C119     C        0.08160    0.70710    0.02560    1.000
    C120     C        0.13300    0.65830    0.07280    1.000
    H73      H        0.12970    0.66080    0.12650    1.000
    C121     C        0.18920    0.60600    0.03900    1.000
    C122     C        0.18920    0.59860    0.95900    1.000
    C123     C        0.13830    0.64850    0.91210    1.000
    H74      H        0.13990    0.64480    0.85830    1.000
    C124     C        0.08540    0.70330    0.94550    1.000
    C125     C        0.04030    0.75910    0.89660    1.000
    C126     C        0.24230    0.54010    0.91950    1.000
    C127     C        0.29560    0.56010    0.86160    1.000
    H75      H        0.29430    0.60920    0.84310    1.000
    C128     C        0.35150    0.50880    0.82990    1.000
    H76      H        0.38880    0.52410    0.79180    1.000
    C129     C        0.35170    0.43350    0.85560    1.000
    C130     C        0.29730    0.41320    0.91140    1.000
    H77      H        0.29800    0.36370    0.92920    1.000
    C131     C        0.24050    0.46390    0.94300    1.000
    H78      H        0.20150    0.44790    0.97930    1.000
    C132     C        0.41520    0.37980    0.82200    1.000
    C133     C        0.24730    0.56380    0.09320    1.000
    C134     C        0.21720    0.53770    0.16230    1.000
    H79      H        0.16010    0.54520    0.17390    1.000
    C135     C        0.27030    0.50050    0.21460    1.000
    H80      H        0.24830    0.48440    0.26130    1.000
    C136     C        0.35160    0.48710    0.20030    1.000
    C137     C        0.38550    0.51380    0.13050    1.000
    H81      H        0.44270    0.50590    0.11950    1.000
    C138     C        0.33260    0.55140    0.07930    1.000
    H82      H        0.35500    0.56930    0.03340    1.000
    C139     C        0.40980    0.44880    0.25990    1.000
    C140     C        0.79670    0.78600    0.20340    1.000
    H83      H        0.77490    0.80230    0.15560    1.000
    C141     C        0.75440    0.74800    0.25410    1.000
    H84      H        0.69840    0.73100    0.24810    1.000
    C142     C        0.88200    0.76920    0.30020    1.000
    H85      H        0.92970    0.76980    0.33360    1.000
    C143     C        0.78470    0.69940    0.38890    1.000
    C144     C        0.80880    0.72640    0.45980    1.000
    H86      H        0.84190    0.76980    0.46380    1.000
    C145     C        0.78420    0.68950    0.52570    1.000
    C146     C        0.73350    0.62280    0.52000    1.000
    H87      H        0.71770    0.59720    0.56430    1.000
    C147     C        0.70930    0.59800    0.44960    1.000
    C148     C        0.73570    0.63190    0.38110    1.000
    H88      H        0.72200    0.61140    0.33270    1.000
    C149     C        0.87840    0.75620    0.62420    1.000
    H89      H        0.92270    0.76850    0.59160    1.000
    C150     C        0.80050    0.74750    0.72280    1.000
    H90      H        0.78200    0.75350    0.77320    1.000
    C151     C        0.75700    0.71400    0.66760    1.000
    H91      H        0.70360    0.69160    0.67160    1.000
    C152     C        0.62980    0.49410    0.38480    1.000
    H92      H        0.64810    0.50700    0.33570    1.000
    C153     C        0.69070    0.45950    0.49160    1.000
    H93      H        0.72720    0.45700    0.53510    1.000
    C154     C        0.64320    0.40240    0.46100    1.000
    H94      H        0.64330    0.35290    0.47840    1.000
    N28      N        0.64300    0.53700    0.44100    1.000
    C155     C        0.58250    0.52110    0.49300    1.000
    H95      H        0.56860    0.54710    0.53770    1.000
    C156     C        0.54680    0.45630    0.46250    1.000
    H96      H        0.50030    0.43130    0.48290    1.000
