# CIF file generated by openbabel 3.1.0, see https://openbabel.org
data_I
_chemical_name_common 'image0'
_cell_length_a 7.119
_cell_length_b 21.58
_cell_length_c 9.1
_cell_angle_alpha 90
_cell_angle_beta 90
_cell_angle_gamma 90
_space_group_name_H-M_alt 'P 1'
_space_group_name_Hall 'P 1'
loop_
    _symmetry_equiv_pos_as_xyz
    x,y,z
loop_
    _atom_site_label
    _atom_site_type_symbol
    _atom_site_fract_x
    _atom_site_fract_y
    _atom_site_fract_z
    _atom_site_occupancy
    C1       C        0.33300    0.75080    0.77900    1.000
    H1       H        0.21860    0.77070    0.79270    1.000
    C2       C        0.33220    0.69260    0.73610    1.000
    H2       H        0.21680    0.67350    0.72040    1.000
    N1       N        0.60350    0.93480    0.93220    1.000
    N2       N        0.65680    0.88180    0.88450    1.000
    O1       O        0.64580    0.56820    0.65230    1.000
    C3       C        0.83300    0.25080    0.27900    1.000
    H3       H        0.71860    0.27070    0.29270    1.000
    C4       C        0.83220    0.19260    0.23610    1.000
    H4       H        0.71680    0.17350    0.22040    1.000
    N3       N        0.10350    0.43480    0.43220    1.000
    N4       N        0.15680    0.38180    0.38450    1.000
    O2       O        0.14580    0.06820    0.15230    1.000
    C5       C        0.66700    0.24920    0.77900    1.000
    H5       H        0.78140    0.22930    0.79270    1.000
    C6       C        0.66780    0.30740    0.73610    1.000
    H6       H        0.78320    0.32650    0.72040    1.000
    N5       N        0.39650    0.06520    0.93220    1.000
    N6       N        0.34320    0.11820    0.88450    1.000
    O3       O        0.35420    0.43180    0.65230    1.000
    C7       C        0.16700    0.74920    0.27900    1.000
    H7       H        0.28140    0.72930    0.29270    1.000
    C8       C        0.16780    0.80740    0.23610    1.000
    H8       H        0.28320    0.82650    0.22040    1.000
    N7       N        0.89650    0.56520    0.43220    1.000
    N8       N        0.84320    0.61820    0.38450    1.000
    O4       O        0.85420    0.93180    0.15230    1.000
    C9       C        0.33300    0.24920    0.77900    1.000
    H9       H        0.21860    0.22930    0.79270    1.000
    C10      C        0.33220    0.30740    0.73610    1.000
    H10      H        0.21680    0.32650    0.72040    1.000
    N9       N        0.60350    0.06520    0.93220    1.000
    N10      N        0.65680    0.11820    0.88450    1.000
    O5       O        0.64580    0.43180    0.65230    1.000
    C11      C        0.83300    0.74920    0.27900    1.000
    H11      H        0.71860    0.72930    0.29270    1.000
    C12      C        0.83220    0.80740    0.23610    1.000
    H12      H        0.71680    0.82650    0.22040    1.000
    N11      N        0.10350    0.56520    0.43220    1.000
    N12      N        0.15680    0.61820    0.38450    1.000
    O6       O        0.14580    0.93180    0.15230    1.000
    C13      C        0.66700    0.75080    0.77900    1.000
    H13      H        0.78140    0.77070    0.79270    1.000
    C14      C        0.66780    0.69260    0.73610    1.000
    H14      H        0.78320    0.67350    0.72040    1.000
    N13      N        0.39650    0.93480    0.93220    1.000
    N14      N        0.34320    0.88180    0.88450    1.000
    O7       O        0.35420    0.56820    0.65230    1.000
    C15      C        0.16700    0.25080    0.27900    1.000
    H15      H        0.28140    0.27070    0.29270    1.000
    C16      C        0.16780    0.19260    0.23610    1.000
    H16      H        0.28320    0.17350    0.22040    1.000
    N15      N        0.89650    0.43480    0.43220    1.000
    N16      N        0.84320    0.38180    0.38450    1.000
    O8       O        0.85420    0.06820    0.15230    1.000
    C17      C        0.50000    0.78440    0.80380    1.000
    C18      C        0.50000    0.65670    0.71250    1.000
    C19      C        0.50000    0.59290    0.66920    1.000
    C20      C        0.50000    0.84620    0.85350    1.000
    C21      C        0.00000    0.28440    0.30380    1.000
    C22      C        0.00000    0.15670    0.21250    1.000
    C23      C        0.00000    0.09290    0.16920    1.000
    C24      C        0.00000    0.34620    0.35350    1.000
    C25      C        0.50000    0.21560    0.80380    1.000
    C26      C        0.50000    0.34330    0.71250    1.000
    C27      C        0.50000    0.40710    0.66920    1.000
    C28      C        0.50000    0.15380    0.85350    1.000
    C29      C        0.00000    0.71560    0.30380    1.000
    C30      C        0.00000    0.84330    0.21250    1.000
    C31      C        0.00000    0.90710    0.16920    1.000
    C32      C        0.00000    0.65380    0.35350    1.000
    Cu1      Cu       0.74826    0.00000    0.03300    1.000
    Cu2      Cu       0.24826    0.50000    0.53300    1.000
    Cu3      Cu       0.25174    0.00000    0.03300    1.000
    Cu4      Cu       0.75174    0.50000    0.53300    1.000
