# CIF file generated by openbabel 3.1.0, see https://openbabel.org
data_I
_chemical_name_common 'SUHHOT_clean'
_cell_length_a 6.1308
_cell_length_b 7.458
_cell_length_c 12.457
_cell_angle_alpha 74.662
_cell_angle_beta 88.835
_cell_angle_gamma 89.304
_space_group_name_H-M_alt 'P 1'
_space_group_name_Hall 'P 1'
loop_
    _symmetry_equiv_pos_as_xyz
    x,y,z
loop_
    _atom_site_label
    _atom_site_type_symbol
    _atom_site_fract_x
    _atom_site_fract_y
    _atom_site_fract_z
    _atom_site_occupancy
    La1      La       0.40358    0.93056    0.44661    1.000
    La2      La       0.25107    0.25389    0.84994    1.000
    H1       H        0.86970    0.39130    0.58630    1.000
    H2       H        0.98080    0.39170    0.41740    1.000
    H3       H        0.77980    0.83910    0.71490    1.000
    H4       H        0.67180    0.66850    0.88890    1.000
    H5       H        0.65940    0.37380    0.07430    1.000
    H6       H        0.93910    0.33340    0.21540    1.000
    H7       H        0.09350    0.09770    0.65850    1.000
    H8       H        0.26990    0.23580    0.38990    1.000
    H9       H        0.55020    0.60750    0.63610    1.000
    H10      H        0.35800    0.59010    0.91580    1.000
    H11      H        0.53220    0.66600    0.11460    1.000
    H12      H        0.88110    0.68820    0.17320    1.000
    C1       C        0.19010    0.47430    0.58310    1.000
    C2       C        0.01200    0.33140    0.58320    1.000
    C3       C        0.03280    0.28520    0.47590    1.000
    C4       C        0.90200    0.11620    0.47190    1.000
    C5       C        0.46140    0.90940    0.71840    1.000
    C6       C        0.63900    0.77710    0.71780    1.000
    C7       C        0.61550    0.62200    0.82830    1.000
    C8       C        0.74030    0.45860    0.82250    1.000
    C9       C        0.53110    0.35710    0.22490    1.000
    C10      C        0.66670    0.44750    0.12860    1.000
    C11      C        0.90520    0.45210    0.16190    1.000
    C12      C        0.06730    0.47580    0.05750    1.000
    O1       O        0.19650    0.62550    0.50130    1.000
    O2       O        0.33270    0.43400    0.65250    1.000
    O3       O        0.03140    0.18780    0.67710    1.000
    O4       O        0.25870    0.25490    0.45410    1.000
    O5       O        0.99110    0.98740    0.44500    1.000
    O6       O        0.69890    0.11690    0.49010    1.000
    O7       O        0.31470    0.94380    0.63780    1.000
    O8       O        0.44670    0.99580    0.80140    1.000
    O9       O        0.61330    0.71230    0.61790    1.000
    O10      O        0.38680    0.57530    0.85160    1.000
    O11      O        0.65890    0.29600    0.85160    1.000
    O12      O        0.95600    0.48480    0.79770    1.000
    O13      O        0.54980    0.19080    0.26660    1.000
    O14      O        0.41630    0.45200    0.27250    1.000
    O15      O        0.61990    0.62850    0.07470    1.000
    O16      O        0.92290    0.59000    0.21500    1.000
    O17      O        0.09000    0.32890    0.03080    1.000
    O18      O        0.13130    0.63110    0.01440    1.000
