# CIF file generated by openbabel 3.1.0, see https://openbabel.org
data_I
_chemical_name_common 'image0'
_cell_length_a 13.775
_cell_length_b 14.507
_cell_length_c 24.244
_cell_angle_alpha 83.217
_cell_angle_beta 81.797
_cell_angle_gamma 65.572
_space_group_name_H-M_alt 'P 1'
_space_group_name_Hall 'P 1'
loop_
    _symmetry_equiv_pos_as_xyz
    x,y,z
loop_
    _atom_site_label
    _atom_site_type_symbol
    _atom_site_fract_x
    _atom_site_fract_y
    _atom_site_fract_z
    _atom_site_occupancy
    Cd1      Cd       0.74745    0.77374    0.60062    1.000
    Cd2      Cd       0.75074    0.74967    0.74979    1.000
    Cd3      Cd       0.27160    0.25980    0.10360    1.000
    O1       O        0.36100    0.30030    0.02710    1.000
    Si1      Si       0.36915    0.39464    0.73624    1.000
    Si2      Si       0.12890    0.10540    0.76470    1.000
    O2       O        0.86840    0.72650    0.66990    1.000
    O3       O        0.91380    0.62850    0.59960    1.000
    O4       O        0.21720    0.28020    0.00960    1.000
    O5       O        0.62900    0.88170    0.69270    1.000
    O6       O        0.65190    0.93440    0.61810    1.000
    O7       O        0.65020    0.68370    0.62920    1.000
    O8       O        0.67920    0.66280    0.71600    1.000
    O9       O        0.28440    0.20930    0.49040    1.000
    O10      O        0.15780    0.16250    0.47750    1.000
    O11      O        0.85150    0.59610    0.78960    1.000
    O12      O        0.63100    0.76860    0.83110    1.000
    O13      O        0.58940    0.87170    0.89990    1.000
    O14      O        0.89790    0.56620    0.87780    1.000
    C1       C        0.93370    0.65190    0.64470    1.000
    C2       C        0.04050    0.58680    0.66590    1.000
    C3       C        0.11040    0.49980    0.63970    1.000
    H1       H        0.09130    0.48130    0.60780    1.000
    C4       C        0.20820    0.44000    0.66000    1.000
    H2       H        0.25590    0.38060    0.64210    1.000
    C5       C        0.23610    0.46720    0.70660    1.000
    C6       C        0.16620    0.55410    0.73280    1.000
    H3       H        0.18530    0.57270    0.76460    1.000
    C7       C        0.06840    0.61390    0.71250    1.000
    H4       H        0.02060    0.67330    0.73040    1.000
    C8       C        0.30140    0.30800    0.99040    1.000
    C9       C        0.30610    0.34230    0.92920    1.000
    C10      C        0.38880    0.37160    0.90770    1.000
    H5       H        0.43250    0.37960    0.93220    1.000
    C11      C        0.40770    0.38940    0.85040    1.000
    H6       H        0.46430    0.40950    0.83570    1.000
    C12      C        0.34380    0.37780    0.81460    1.000
    C13      C        0.26100    0.34840    0.83610    1.000
    H7       H        0.21740    0.34050    0.81160    1.000
    C14      C        0.24220    0.33070    0.89340    1.000
    H8       H        0.18560    0.31060    0.90810    1.000
    C15      C        0.62670    0.95520    0.66520    1.000
    C16      C        0.56350    0.06280    0.68140    1.000
    C17      C        0.53780    0.14250    0.64060    1.000
    H9       H        0.56110    0.12930    0.60250    1.000
    C18      C        0.47810    0.24150    0.65560    1.000
    H10      H        0.46060    0.29590    0.62770    1.000
    C19      C        0.44390    0.26100    0.71150    1.000
    C20      C        0.46950    0.18130    0.75230    1.000
    H11      H        0.44620    0.19450    0.79050    1.000
    C21      C        0.52930    0.08230    0.73730    1.000
    H12      H        0.54680    0.02790    0.76520    1.000
    C22      C        0.64020    0.65040    0.67760    1.000
    C23      C        0.57520    0.58700    0.68870    1.000
    C24      C        0.45480    0.47120    0.71560    1.000
    C25      C        0.47860    0.61590    0.66640    1.000
    H13      H        0.45360    0.67520    0.64200    1.000
    C26      C        0.41830    0.55810    0.67980    1.000
    H14      H        0.35230    0.57780    0.66450    1.000
    C27      C        0.55140    0.44230    0.73790    1.000
    H15      H        0.57640    0.38300    0.76230    1.000
    C28      C        0.61160    0.50020    0.72450    1.000
    H16      H        0.67760    0.48050    0.73980    1.000
    O15      O        0.84440    0.81920    0.87110    1.000
    O16      O        0.88290    0.78470    0.78690    1.000
    C29      C        0.89760    0.82310    0.83000    1.000
    C30      C        0.96080    0.88760    0.81460    1.000
    C31      C        0.03790    0.86740    0.76870    1.000
    H17      H        0.05110    0.81260    0.74670    1.000
    C32      C        0.09570    0.92750    0.75500    1.000
    H18      H        0.14830    0.91370    0.72360    1.000
    C33      C        0.07640    0.00770    0.78710    1.000
    C34      C        0.99930    0.02790    0.83300    1.000
    H19      H        0.98610    0.08270    0.85500    1.000
    C35      C        0.94160    0.96780    0.84670    1.000
    H20      H        0.88890    0.98160    0.87810    1.000
    C36      C        0.21540    0.17910    0.50770    1.000
    C37      C        0.19830    0.15440    0.56960    1.000
    C38      C        0.11370    0.12950    0.59370    1.000
    H21      H        0.06450    0.12820    0.57040    1.000
    C39      C        0.09880    0.10650    0.65070    1.000
    H22      H        0.04020    0.08980    0.66570    1.000
    C40      C        0.16970    0.10790    0.68570    1.000
    C41      C        0.25450    0.13270    0.66190    1.000
    H23      H        0.30380    0.13410    0.68520    1.000
    C42      C        0.26890    0.15570    0.60480    1.000
    H24      H        0.32750    0.17240    0.58980    1.000
    C43      C        0.87760    0.54240    0.82960    1.000
    C44      C        0.95030    0.43440    0.81720    1.000
    C45      C        0.98380    0.41330    0.76150    1.000
    H25      H        0.96740    0.46700    0.73320    1.000
    C46      C        0.04120    0.31350    0.74730    1.000
    H26      H        0.06400    0.29920    0.70920    1.000
    C47      C        0.06520    0.23480    0.78870    1.000
    C48      C        0.03190    0.25570    0.84440    1.000
    H27      H        0.04820    0.20200    0.87270    1.000
    C49      C        0.97440    0.35550    0.85850    1.000
    H28      H        0.95160    0.36990    0.89660    1.000
    C50      C        0.56660    0.85340    0.85860    1.000
    C51      C        0.46120    0.91380    0.83490    1.000
    C52      C        0.43480    0.88570    0.78820    1.000
    H29      H        0.48340    0.82650    0.77040    1.000
    C53      C        0.33710    0.94440    0.76740    1.000
    H30      H        0.31900    0.92510    0.73550    1.000
    C54      C        0.26580    0.03110    0.79340    1.000
    C55      C        0.29230    0.05920    0.84010    1.000
    H31      H        0.24360    0.11850    0.85790    1.000
    C56      C        0.39000    0.00060    0.86090    1.000
    H32      H        0.40810    0.01980    0.89280    1.000
    Cd4      Cd       0.22620    0.28590    0.09812    1.000
    O17      O        0.31060    0.36910    0.02020    1.000
    C57      C        0.43710    0.55130    0.74750    1.000
    H33      H        0.38380    0.56640    0.77860    1.000
    C58      C        0.49720    0.60920    0.73420    1.000
    H34      H        0.48500    0.66390    0.75610    1.000
    C59      C        0.59270    0.50700    0.65690    1.000
    H35      H        0.64600    0.49190    0.62580    1.000
    C60      C        0.53270    0.44890    0.67010    1.000
    H36      H        0.54490    0.39420    0.64820    1.000
    O18      O        0.76880    0.87780    0.78220    1.000
    C61      C        0.83430    0.87710    0.82110    1.000
    C62      C        0.89520    0.94420    0.80950    1.000
    C63      C        0.98920    0.91420    0.83460    1.000
    H37      H        0.00990    0.85620    0.86020    1.000
    C64      C        0.05290    0.96880    0.82230    1.000
    H38      H        0.11710    0.94820    0.83950    1.000
    C65      C        0.02270    0.05360    0.78480    1.000
    C66      C        0.92870    0.08370    0.75960    1.000
    H39      H        0.90800    0.14170    0.73400    1.000
    C67      C        0.86510    0.02900    0.77200    1.000
    H40      H        0.80090    0.04960    0.75480    1.000
    Cd5      Cd       0.23010    0.78160    0.48190    1.000
    O19      O        0.20800    0.91910    0.41590    1.000
    O20      O        0.28800    0.86100    0.54130    1.000
    O21      O        0.04890    0.87600    0.51160    1.000
    O22      O        0.69600    0.94900    0.61000    1.000
    Cd6      Cd       0.17830    0.00420    0.44838    1.000
    O23      O        0.31320    0.92000    0.50820    1.000
    O24      O        0.07200    0.95000    0.51770    1.000
    Cd7      Cd       0.25255    0.22626    0.39938    1.000
    Cd8      Cd       0.24926    0.25033    0.25021    1.000
    Cd9      Cd       0.72840    0.74020    0.89640    1.000
    O25      O        0.63900    0.69970    0.97290    1.000
    Si3      Si       0.63085    0.60536    0.26376    1.000
    Si4      Si       0.87110    0.89460    0.23530    1.000
    O26      O        0.13160    0.27350    0.33010    1.000
    O27      O        0.08620    0.37150    0.40040    1.000
    O28      O        0.78280    0.71980    0.99040    1.000
    O29      O        0.37100    0.11830    0.30730    1.000
    O30      O        0.34810    0.06560    0.38190    1.000
    O31      O        0.34980    0.31630    0.37080    1.000
    O32      O        0.32080    0.33720    0.28400    1.000
    O33      O        0.71560    0.79070    0.50960    1.000
    O34      O        0.84220    0.83750    0.52250    1.000
    O35      O        0.14850    0.40390    0.21040    1.000
    O36      O        0.36900    0.23140    0.16890    1.000
    O37      O        0.41060    0.12830    0.10010    1.000
    O38      O        0.10210    0.43380    0.12220    1.000
    C68      C        0.06630    0.34810    0.35530    1.000
    C69      C        0.95950    0.41320    0.33410    1.000
    C70      C        0.88960    0.50020    0.36030    1.000
    H41      H        0.90870    0.51870    0.39220    1.000
    C71      C        0.79180    0.56000    0.34000    1.000
    H42      H        0.74410    0.61940    0.35790    1.000
    C72      C        0.76390    0.53280    0.29340    1.000
    C73      C        0.83380    0.44590    0.26720    1.000
    H43      H        0.81470    0.42730    0.23540    1.000
    C74      C        0.93160    0.38610    0.28750    1.000
    H44      H        0.97940    0.32670    0.26960    1.000
    C75      C        0.69860    0.69200    0.00960    1.000
    C76      C        0.69390    0.65770    0.07080    1.000
    C77      C        0.61120    0.62840    0.09230    1.000
    H45      H        0.56750    0.62040    0.06780    1.000
    C78      C        0.59230    0.61060    0.14960    1.000
    H46      H        0.53570    0.59050    0.16430    1.000
    C79      C        0.65620    0.62220    0.18540    1.000
    C80      C        0.73900    0.65160    0.16390    1.000
    H47      H        0.78260    0.65950    0.18840    1.000
    C81      C        0.75780    0.66930    0.10660    1.000
    H48      H        0.81440    0.68940    0.09190    1.000
    C82      C        0.37330    0.04480    0.33480    1.000
    C83      C        0.43650    0.93720    0.31860    1.000
    C84      C        0.46220    0.85750    0.35940    1.000
    H49      H        0.43890    0.87070    0.39750    1.000
    C85      C        0.52190    0.75850    0.34440    1.000
    H50      H        0.53940    0.70410    0.37230    1.000
    C86      C        0.55610    0.73900    0.28850    1.000
    C87      C        0.53050    0.81870    0.24770    1.000
    H51      H        0.55380    0.80550    0.20950    1.000
    C88      C        0.47070    0.91770    0.26270    1.000
    H52      H        0.45320    0.97210    0.23480    1.000
    C89      C        0.35980    0.34960    0.32240    1.000
    C90      C        0.42480    0.41300    0.31130    1.000
    C91      C        0.54520    0.52880    0.28440    1.000
    C92      C        0.52140    0.38410    0.33360    1.000
    H53      H        0.54640    0.32480    0.35800    1.000
    C93      C        0.58170    0.44190    0.32020    1.000
    H54      H        0.64770    0.42220    0.33550    1.000
    C94      C        0.44860    0.55770    0.26210    1.000
    H55      H        0.42360    0.61700    0.23770    1.000
    C95      C        0.38840    0.49980    0.27550    1.000
    H56      H        0.32240    0.51950    0.26020    1.000
    O39      O        0.15560    0.18080    0.12890    1.000
    O40      O        0.11710    0.21530    0.21310    1.000
    C96      C        0.10240    0.17690    0.17000    1.000
    C97      C        0.03920    0.11240    0.18540    1.000
    C98      C        0.96210    0.13260    0.23130    1.000
    H57      H        0.94890    0.18740    0.25330    1.000
    C99      C        0.90430    0.07250    0.24500    1.000
    H58      H        0.85170    0.08630    0.27640    1.000
    C100     C        0.92360    0.99230    0.21290    1.000
    C101     C        0.00070    0.97210    0.16700    1.000
    H59      H        0.01390    0.91730    0.14500    1.000
    C102     C        0.05840    0.03220    0.15330    1.000
    H60      H        0.11110    0.01840    0.12190    1.000
    C103     C        0.78460    0.82090    0.49230    1.000
    C104     C        0.80170    0.84560    0.43040    1.000
    C105     C        0.88630    0.87050    0.40630    1.000
    H61      H        0.93550    0.87180    0.42960    1.000
    C106     C        0.90120    0.89350    0.34930    1.000
    H62      H        0.95980    0.91020    0.33430    1.000
    C107     C        0.83030    0.89210    0.31430    1.000
    C108     C        0.74550    0.86730    0.33810    1.000
    H63      H        0.69620    0.86590    0.31480    1.000
    C109     C        0.73110    0.84430    0.39520    1.000
    H64      H        0.67250    0.82760    0.41020    1.000
    C110     C        0.12240    0.45760    0.17040    1.000
    C111     C        0.04970    0.56560    0.18280    1.000
    C112     C        0.01620    0.58670    0.23850    1.000
    H65      H        0.03260    0.53300    0.26680    1.000
    C113     C        0.95880    0.68650    0.25270    1.000
    H66      H        0.93600    0.70080    0.29080    1.000
    C114     C        0.93480    0.76520    0.21130    1.000
    C115     C        0.96810    0.74430    0.15560    1.000
    H67      H        0.95180    0.79800    0.12730    1.000
    C116     C        0.02560    0.64450    0.14150    1.000
    H68      H        0.04840    0.63010    0.10340    1.000
    C117     C        0.43340    0.14660    0.14140    1.000
    C118     C        0.53880    0.08620    0.16510    1.000
    C119     C        0.56520    0.11430    0.21180    1.000
    H69      H        0.51660    0.17350    0.22960    1.000
    C120     C        0.66290    0.05560    0.23260    1.000
    H70      H        0.68100    0.07490    0.26450    1.000
    C121     C        0.73420    0.96890    0.20660    1.000
    C122     C        0.70770    0.94080    0.15990    1.000
    H71      H        0.75640    0.88150    0.14210    1.000
    C123     C        0.61000    0.99940    0.13910    1.000
    H72      H        0.59190    0.98020    0.10720    1.000
    Cd10     Cd       0.77380    0.71410    0.90188    1.000
    O41      O        0.68940    0.63090    0.97980    1.000
    C124     C        0.56290    0.44870    0.25250    1.000
    H73      H        0.61620    0.43360    0.22140    1.000
    C125     C        0.50280    0.39080    0.26580    1.000
    H74      H        0.51500    0.33610    0.24390    1.000
    C126     C        0.40730    0.49300    0.34310    1.000
    H75      H        0.35400    0.50810    0.37420    1.000
    C127     C        0.46730    0.55110    0.32990    1.000
    H76      H        0.45510    0.60580    0.35180    1.000
    O42      O        0.23120    0.12220    0.21780    1.000
    C128     C        0.16570    0.12290    0.17890    1.000
    C129     C        0.10480    0.05580    0.19050    1.000
    C130     C        0.01080    0.08580    0.16540    1.000
    H77      H        0.99010    0.14380    0.13980    1.000
    C131     C        0.94710    0.03120    0.17770    1.000
    H78      H        0.88290    0.05180    0.16050    1.000
    C132     C        0.97730    0.94640    0.21520    1.000
    C133     C        0.07130    0.91630    0.24040    1.000
    H79      H        0.09200    0.85830    0.26600    1.000
    C134     C        0.13490    0.97100    0.22800    1.000
    H80      H        0.19910    0.95040    0.24520    1.000
    Cd11     Cd       0.76990    0.21840    0.51810    1.000
    O43      O        0.79200    0.08090    0.58410    1.000
    O44      O        0.71200    0.13900    0.45870    1.000
    O45      O        0.95110    0.12400    0.48840    1.000
    O46      O        0.30400    0.05100    0.39000    1.000
    Cd12     Cd       0.82170    0.99580    0.55162    1.000
    O47      O        0.68680    0.08000    0.49180    1.000
    O48      O        0.92800    0.05000    0.48230    1.000
