# CIF file generated by openbabel 3.1.0, see https://openbabel.org
data_I
_chemical_name_common 'image0'
_cell_length_a 9.5051
_cell_length_b 14.6243
_cell_length_c 13.5603
_cell_angle_alpha 90
_cell_angle_beta 90
_cell_angle_gamma 90
_space_group_name_H-M_alt 'P 1'
_space_group_name_Hall 'P 1'
loop_
    _symmetry_equiv_pos_as_xyz
    x,y,z
loop_
    _atom_site_label
    _atom_site_type_symbol
    _atom_site_fract_x
    _atom_site_fract_y
    _atom_site_fract_z
    _atom_site_occupancy
    O1       O        0.08190    0.11096    0.55062    1.000
    O2       O        0.90769    0.11830    0.44381    1.000
    C1       C        0.03120    0.28949    0.61719    1.000
    O3       O        0.20456    0.39117    0.74982    1.000
    C2       C        0.00660    0.37983    0.64350    1.000
    C3       C        0.08790    0.42415    0.72530    1.000
    C4       C        0.90760    0.43011    0.59140    1.000
    C5       C        0.98400    0.15192    0.50985    1.000
    C6       C        0.95660    0.24909    0.54051    1.000
    C7       C        0.85720    0.30033    0.49019    1.000
    C8       C        0.83460    0.39042    0.51460    1.000
    O4       O        0.03577    0.49361    0.76841    1.000
    H1       H        0.09600    0.25490    0.64960    1.000
    H2       H        0.80400    0.27490    0.44200    1.000
    H3       H        0.88100    0.48800    0.61700    1.000
    H4       H        0.76900    0.42200    0.47800    1.000
    O5       O        0.41810    0.88904    0.55062    1.000
    O6       O        0.59231    0.88170    0.44381    1.000
    C9       C        0.46880    0.71051    0.61719    1.000
    O7       O        0.29544    0.60883    0.74982    1.000
    C10      C        0.49340    0.62017    0.64350    1.000
    C11      C        0.41210    0.57585    0.72530    1.000
    C12      C        0.59240    0.56989    0.59140    1.000
    C13      C        0.51600    0.84808    0.50985    1.000
    C14      C        0.54340    0.75091    0.54051    1.000
    C15      C        0.64280    0.69967    0.49019    1.000
    C16      C        0.66540    0.60958    0.51460    1.000
    O8       O        0.46423    0.50639    0.76841    1.000
    H5       H        0.40400    0.74510    0.64960    1.000
    H6       H        0.69600    0.72510    0.44200    1.000
    H7       H        0.61900    0.51200    0.61700    1.000
    H8       H        0.73100    0.57800    0.47800    1.000
    O9       O        0.41810    0.61096    0.94938    1.000
    O10      O        0.59231    0.61830    0.05619    1.000
    C17      C        0.46880    0.78949    0.88281    1.000
    O11      O        0.29544    0.89117    0.75018    1.000
    C18      C        0.49340    0.87983    0.85650    1.000
    C19      C        0.41210    0.92415    0.77470    1.000
    C20      C        0.59240    0.93011    0.90860    1.000
    C21      C        0.51600    0.65192    0.99015    1.000
    C22      C        0.54340    0.74909    0.95949    1.000
    C23      C        0.64280    0.80033    0.00981    1.000
    C24      C        0.66540    0.89042    0.98540    1.000
    O12      O        0.46423    0.99361    0.73159    1.000
    H9       H        0.40400    0.75490    0.85040    1.000
    H10      H        0.69600    0.77490    0.05800    1.000
    H11      H        0.61900    0.98800    0.88300    1.000
    H12      H        0.73100    0.92200    0.02200    1.000
    O13      O        0.08190    0.38904    0.94938    1.000
    O14      O        0.90769    0.38170    0.05619    1.000
    C25      C        0.03120    0.21051    0.88281    1.000
    O15      O        0.20456    0.10883    0.75018    1.000
    C26      C        0.00660    0.12017    0.85650    1.000
    C27      C        0.08790    0.07585    0.77470    1.000
    C28      C        0.90760    0.06989    0.90860    1.000
    C29      C        0.98400    0.34808    0.99015    1.000
    C30      C        0.95660    0.25091    0.95949    1.000
    C31      C        0.85720    0.19967    0.00981    1.000
    C32      C        0.83460    0.10958    0.98540    1.000
    O16      O        0.03577    0.00639    0.73159    1.000
    H13      H        0.09600    0.24510    0.85040    1.000
    H14      H        0.80400    0.22510    0.05800    1.000
    H15      H        0.88100    0.01200    0.88300    1.000
    H16      H        0.76900    0.07800    0.02200    1.000
    O17      O        0.91810    0.88904    0.44938    1.000
    O18      O        0.09231    0.88170    0.55619    1.000
    C33      C        0.96880    0.71051    0.38281    1.000
    O19      O        0.79544    0.60883    0.25018    1.000
    C34      C        0.99340    0.62017    0.35650    1.000
    C35      C        0.91210    0.57585    0.27470    1.000
    C36      C        0.09240    0.56989    0.40860    1.000
    C37      C        0.01600    0.84808    0.49015    1.000
    C38      C        0.04340    0.75091    0.45949    1.000
    C39      C        0.14280    0.69967    0.50981    1.000
    C40      C        0.16540    0.60958    0.48540    1.000
    O20      O        0.96423    0.50639    0.23159    1.000
    H17      H        0.90400    0.74510    0.35040    1.000
    H18      H        0.19600    0.72510    0.55800    1.000
    H19      H        0.11900    0.51200    0.38300    1.000
    H20      H        0.23100    0.57800    0.52200    1.000
    O21      O        0.58190    0.11096    0.44938    1.000
    O22      O        0.40769    0.11830    0.55619    1.000
    C41      C        0.53120    0.28949    0.38281    1.000
    O23      O        0.70456    0.39117    0.25018    1.000
    C42      C        0.50660    0.37983    0.35650    1.000
    C43      C        0.58790    0.42415    0.27470    1.000
    C44      C        0.40760    0.43011    0.40860    1.000
    C45      C        0.48400    0.15192    0.49015    1.000
    C46      C        0.45660    0.24909    0.45949    1.000
    C47      C        0.35720    0.30033    0.50981    1.000
    C48      C        0.33460    0.39042    0.48540    1.000
    O24      O        0.53577    0.49361    0.23159    1.000
    H21      H        0.59600    0.25490    0.35040    1.000
    H22      H        0.30400    0.27490    0.55800    1.000
    H23      H        0.38100    0.48800    0.38300    1.000
    H24      H        0.26900    0.42200    0.52200    1.000
    O25      O        0.58190    0.38904    0.05062    1.000
    O26      O        0.40769    0.38170    0.94381    1.000
    C49      C        0.53120    0.21051    0.11719    1.000
    O27      O        0.70456    0.10883    0.24982    1.000
    C50      C        0.50660    0.12017    0.14350    1.000
    C51      C        0.58790    0.07585    0.22530    1.000
    C52      C        0.40760    0.06989    0.09140    1.000
    C53      C        0.48400    0.34808    0.00985    1.000
    C54      C        0.45660    0.25091    0.04051    1.000
    C55      C        0.35720    0.19967    0.99019    1.000
    C56      C        0.33460    0.10958    0.01460    1.000
    O28      O        0.53577    0.00639    0.26841    1.000
    H25      H        0.59600    0.24510    0.14960    1.000
    H26      H        0.30400    0.22510    0.94200    1.000
    H27      H        0.38100    0.01200    0.11700    1.000
    H28      H        0.26900    0.07800    0.97800    1.000
    O29      O        0.91810    0.61096    0.05062    1.000
    O30      O        0.09231    0.61830    0.94381    1.000
    C57      C        0.96880    0.78949    0.11719    1.000
    O31      O        0.79544    0.89117    0.24982    1.000
    C58      C        0.99340    0.87983    0.14350    1.000
    C59      C        0.91210    0.92415    0.22530    1.000
    C60      C        0.09240    0.93011    0.09140    1.000
    C61      C        0.01600    0.65192    0.00985    1.000
    C62      C        0.04340    0.74909    0.04051    1.000
    C63      C        0.14280    0.80033    0.99019    1.000
    C64      C        0.16540    0.89042    0.01460    1.000
    O32      O        0.96423    0.99361    0.26841    1.000
    H29      H        0.90400    0.75490    0.14960    1.000
    H30      H        0.19600    0.77490    0.94200    1.000
    H31      H        0.11900    0.98800    0.11700    1.000
    H32      H        0.23100    0.92200    0.97800    1.000
    Pr1      Pr       0.25000    0.00000    0.60466    1.000
    Pr2      Pr       0.25000    0.50000    0.89534    1.000
    Pr3      Pr       0.75000    0.00000    0.39534    1.000
    Pr4      Pr       0.75000    0.50000    0.10466    1.000
