# CIF file generated by openbabel 3.1.0, see https://openbabel.org
data_I
_chemical_name_common 'image0'
_cell_length_a 12.611
_cell_length_b 46.104
_cell_length_c 22.386
_cell_angle_alpha 90
_cell_angle_beta 90.333
_cell_angle_gamma 90
_space_group_name_H-M_alt 'P 1'
_space_group_name_Hall 'P 1'
loop_
    _symmetry_equiv_pos_as_xyz
    x,y,z
loop_
    _atom_site_label
    _atom_site_type_symbol
    _atom_site_fract_x
    _atom_site_fract_y
    _atom_site_fract_z
    _atom_site_occupancy
    Fe1      Fe       0.50777    0.99942    0.24948    1.000
    Fe2      Fe       0.85124    0.24497    0.51041    1.000
    S1       S        0.14290    0.17615    0.52080    1.000
    N1       N        0.97700    0.21816    0.50880    1.000
    C1       C        0.04750    0.20000    0.51330    1.000
    N2       N        0.71920    0.27085    0.51590    1.000
    S2       S        0.56010    0.31209    0.52990    1.000
    C2       C        0.64730    0.28610    0.51800    1.000
    C3       C        0.65440    0.17320    0.29830    1.000
    N3       N        0.60480    0.19197    0.25550    1.000
    C4       C        0.56680    0.17850    0.20800    1.000
    N4       N        0.54860    0.14802    0.20790    1.000
    C5       C        0.58410    0.13420    0.25040    1.000
    N5       N        0.62950    0.14741    0.30100    1.000
    N6       N        0.77900    0.21727    0.44030    1.000
    C6       C        0.71160    0.23100    0.40490    1.000
    H1       H        0.69310    0.25060    0.41210    1.000
    C7       C        0.67330    0.21760    0.36220    1.000
    H2       H        0.63010    0.22860    0.33580    1.000
    C8       C        0.68510    0.18897    0.34820    1.000
    C9       C        0.74760    0.17617    0.38930    1.000
    H3       H        0.75720    0.15570    0.38790    1.000
    C10      C        0.79590    0.19122    0.43130    1.000
    H4       H        0.84620    0.18160    0.45600    1.000
    N7       N        0.42510    0.22763    0.07390    1.000
    C11      C        0.51270    0.23910    0.11250    1.000
    H5       H        0.54240    0.25760    0.10420    1.000
    C12      C        0.54800    0.22430    0.15630    1.000
    H6       H        0.59650    0.23290    0.18360    1.000
    C13      C        0.51510    0.19448    0.16500    1.000
    C14      C        0.45050    0.18381    0.12370    1.000
    H7       H        0.43890    0.16350    0.12330    1.000
    C15      C        0.40130    0.19963    0.08300    1.000
    H8       H        0.34730    0.19090    0.05930    1.000
    N8       N        0.54160    0.04623    0.24980    1.000
    C16      C        0.53080    0.05970    0.20450    1.000
    H9       H        0.50800    0.05020    0.16900    1.000
    C17      C        0.55110    0.08885    0.20400    1.000
    H10      H        0.54190    0.09860    0.16700    1.000
    C18      C        0.58140    0.10427    0.24850    1.000
    C19      C        0.59370    0.08653    0.30190    1.000
    H11      H        0.61300    0.09550    0.33860    1.000
    C20      C        0.57870    0.05830    0.30030    1.000
    H12      H        0.59390    0.04670    0.33430    1.000
    N9       N        0.62720    0.14620    0.71280    1.000
    C21      C        0.63140    0.17709    0.71690    1.000
    N10      N        0.59860    0.19165    0.76640    1.000
    C22      C        0.54620    0.17814    0.80410    1.000
    N11      N        0.52050    0.15104    0.80320    1.000
    C23      C        0.57030    0.13486    0.75850    1.000
    N12      N        0.79800    0.22004    0.58410    1.000
    C24      C        0.75650    0.23290    0.62520    1.000
    H13      H        0.76380    0.25340    0.62530    1.000
    C25      C        0.69390    0.21980    0.67680    1.000
    H14      H        0.65640    0.23090    0.70540    1.000
    C26      C        0.69790    0.18992    0.67710    1.000
    C27      C        0.74950    0.17682    0.63450    1.000
    H15      H        0.75320    0.15620    0.63420    1.000
    C28      C        0.79930    0.19260    0.58950    1.000
    H16      H        0.83750    0.18190    0.56040    1.000
    N13      N        0.40480    0.22778    0.93970    1.000
    C29      C        0.48320    0.23791    0.89920    1.000
    H17      H        0.51120    0.25680    0.90500    1.000
    C30      C        0.51610    0.22357    0.85760    1.000
    H18      H        0.55650    0.23350    0.82830    1.000
    C31      C        0.50040    0.19490    0.84930    1.000
    C32      C        0.42040    0.18370    0.88920    1.000
    H19      H        0.39600    0.16430    0.88570    1.000
    C33      C        0.38140    0.20133    0.93120    1.000
    H20      H        0.33070    0.19320    0.95740    1.000
    N14      N        0.51270    0.04510    0.75200    1.000
    C34      C        0.56080    0.06099    0.70760    1.000
    H21      H        0.58330    0.05090    0.67290    1.000
    C35      C        0.57780    0.08916    0.70990    1.000
    H22      H        0.61010    0.09820    0.67650    1.000
    C36      C        0.55280    0.10515    0.75510    1.000
    C37      C        0.49960    0.09280    0.80510    1.000
    H23      H        0.47590    0.10390    0.83820    1.000
    C38      C        0.48590    0.06290    0.80060    1.000
    H24      H        0.45510    0.05350    0.83400    1.000
    Cl1      Cl       0.45330    0.11604    0.99050    1.000
    S3       S        0.13280    0.18164    0.47500    1.000
    S4       S        0.38040    0.02074    0.43950    1.000
    C39      C        0.37470    0.00970    0.36840    1.000
    N15      N        0.41770    0.00390    0.33070    1.000
    N16      N        0.62670    0.99190    0.31980    1.000
    C40      C        0.63200    0.98010    0.36050    1.000
    S5       S        0.65490    0.96445    0.42830    1.000
    C41      C        0.92890    0.00160    0.09670    1.000
    N17      N        0.00390    0.00530    0.12360    1.000
    C42      C        0.08270    0.02300    0.10700    1.000
    N18      N        0.09850    0.00710    0.02840    1.000
    C43      C        0.01010    0.00840    0.99500    1.000
    N19      N        0.91850    0.00020    0.02680    1.000
    N20      N        0.63850    0.99350    0.19160    1.000
    C44      C        0.73490    0.00150    0.21700    1.000
    H25      H        0.73900    0.00610    0.25830    1.000
    C45      C        0.82540    0.00280    0.18200    1.000
    H26      H        0.89130    0.00830    0.19940    1.000
    C46      C        0.81960    0.99610    0.12150    1.000
    C47      C        0.72310    0.98810    0.09610    1.000
    H27      H        0.71910    0.98350    0.05480    1.000
    C48      C        0.63260    0.98670    0.13110    1.000
    H28      H        0.56670    0.98130    0.11370    1.000
    N21      N        0.36590    0.00350    0.19420    1.000
    C49      C        0.26960    0.01190    0.21840    1.000
    H29      H        0.26400    0.01520    0.26020    1.000
    C50      C        0.18150    0.01560    0.18160    1.000
    H30      H        0.11570    0.02140    0.19820    1.000
    C51      C        0.18970    0.01090    0.12050    1.000
    C52      C        0.28610    0.00240    0.09620    1.000
    H31      H        0.29170    0.99910    0.05450    1.000
    C53      C        0.37420    0.99870    0.13310    1.000
    H32      H        0.44000    0.99290    0.11650    1.000
    N22      N        0.01960    0.99478    0.81950    1.000
    C54      C        0.10770    0.00543    0.85000    1.000
    H33      H        0.17270    0.00810    0.82950    1.000
    C55      C        0.10070    0.01212    0.91040    1.000
    H34      H        0.16090    0.01940    0.93120    1.000
    C56      C        0.00560    0.00816    0.94030    1.000
    C57      C        0.91740    0.99750    0.90990    1.000
    H35      H        0.85240    0.99480    0.93040    1.000
    C58      C        0.92440    0.99081    0.84950    1.000
    H36      H        0.86420    0.98350    0.82870    1.000
    N23      N        0.40640    0.00509    0.17750    1.000
    C59      C        0.37490    0.00815    0.12870    1.000
    S6       S        0.34520    0.02063    0.06040    1.000
    N24      N        0.60160    0.00098    0.17529    1.000
    C60      C        0.63210    0.00282    0.12780    1.000
    S7       S        0.63250    0.01512    0.05697    1.000
    C61      C        0.10130    0.00070    0.41000    1.000
    N25      N        0.10000    0.99890    0.47190    1.000
    C62      C        0.00410    0.99660    0.50180    1.000
    N26      N        0.90940    0.99610    0.46970    1.000
    C63      C        0.91070    0.99790    0.40770    1.000
    N27      N        0.00660    0.00010    0.37790    1.000
    N28      N        0.37550    0.00540    0.30940    1.000
    C64      C        0.38200    0.01190    0.36990    1.000
    H37      H        0.44760    0.01790    0.38690    1.000
    C65      C        0.29250    0.00970    0.40560    1.000
    H38      H        0.29690    0.01420    0.44690    1.000
    C66      C        0.19650    0.00090    0.38070    1.000
    C67      C        0.19000    0.99430    0.32020    1.000
    H39      H        0.12430    0.98830    0.30320    1.000
    C68      C        0.27940    0.99660    0.28450    1.000
    H40      H        0.27500    0.99210    0.24320    1.000
    N29      N        0.99800    0.00850    0.68240    1.000
    C69      C        0.09070    0.01140    0.64970    1.000
    H41      H        0.15680    0.01370    0.66980    1.000
    C70      C        0.08680    0.01090    0.58770    1.000
    H42      H        0.15020    0.01290    0.56530    1.000
    C71      C        0.99020    0.00750    0.55830    1.000
    C72      C        0.89750    0.00460    0.59100    1.000
    H43      H        0.83140    0.00230    0.57100    1.000
    C73      C        0.90130    0.00510    0.65310    1.000
    H44      H        0.83800    0.00310    0.67540    1.000
    N30      N        0.65240    0.99770    0.30280    1.000
    C74      C        0.62100    0.98750    0.36610    1.000
    H45      H        0.55360    0.98220    0.38080    1.000
    C75      C        0.73410    0.98850    0.40060    1.000
    H46      H        0.73850    0.98220    0.44100    1.000
    C76      C        0.82710    0.99860    0.37140    1.000
    C77      C        0.82510    0.00760    0.31740    1.000
    H47      H        0.88900    0.01500    0.30110    1.000
    C78      C        0.74370    0.00740    0.28440    1.000
    H48      H        0.74910    0.01450    0.24470    1.000
    Cl2      Cl       0.35410    0.07530    0.93440    1.000
    C79      C        0.41890    0.07651    0.00270    1.000
    H49      H        0.37200    0.07290    0.03780    1.000
    Cl3      Cl       0.32950    0.07060    0.05170    1.000
    H50      H        0.38370    0.07070    0.96440    1.000
    Cl4      Cl       0.57510    0.06707    0.07802    1.000
    Cl5      Cl       0.60930    0.06863    0.95070    1.000
    C80      C        0.51440    0.05995    0.00300    1.000
    H51      H        0.49650    0.03890    0.99960    1.000
    Fe3      Fe       0.99223    0.49942    0.25052    1.000
    Fe4      Fe       0.64876    0.74497    0.98959    1.000
    S8       S        0.35710    0.67615    0.97920    1.000
    N31      N        0.52300    0.71816    0.99120    1.000
    C81      C        0.45250    0.70000    0.98670    1.000
    N32      N        0.78080    0.77085    0.98410    1.000
    S9       S        0.93990    0.81209    0.97010    1.000
    C82      C        0.85270    0.78610    0.98200    1.000
    C83      C        0.84560    0.67320    0.20170    1.000
    N33      N        0.89520    0.69197    0.24450    1.000
    C84      C        0.93320    0.67850    0.29200    1.000
    N34      N        0.95140    0.64802    0.29210    1.000
    C85      C        0.91590    0.63420    0.24960    1.000
    N35      N        0.87050    0.64741    0.19900    1.000
    N36      N        0.72100    0.71727    0.05970    1.000
    C86      C        0.78840    0.73100    0.09510    1.000
    H52      H        0.80690    0.75060    0.08790    1.000
    C87      C        0.82670    0.71760    0.13780    1.000
    H53      H        0.86990    0.72860    0.16420    1.000
    C88      C        0.81490    0.68897    0.15180    1.000
    C89      C        0.75240    0.67617    0.11070    1.000
    H54      H        0.74280    0.65570    0.11210    1.000
    C90      C        0.70410    0.69122    0.06870    1.000
    H55      H        0.65380    0.68160    0.04400    1.000
    N37      N        0.07490    0.72763    0.42610    1.000
    C91      C        0.98730    0.73910    0.38750    1.000
    H56      H        0.95760    0.75760    0.39580    1.000
    C92      C        0.95200    0.72430    0.34370    1.000
    H57      H        0.90350    0.73290    0.31640    1.000
    C93      C        0.98490    0.69448    0.33500    1.000
    C94      C        0.04950    0.68381    0.37630    1.000
    H58      H        0.06110    0.66350    0.37670    1.000
    C95      C        0.09870    0.69963    0.41700    1.000
    H59      H        0.15270    0.69090    0.44070    1.000
    N38      N        0.95840    0.54623    0.25020    1.000
    C96      C        0.96920    0.55970    0.29550    1.000
    H60      H        0.99200    0.55020    0.33100    1.000
    C97      C        0.94890    0.58885    0.29600    1.000
    H61      H        0.95810    0.59860    0.33300    1.000
    C98      C        0.91860    0.60427    0.25150    1.000
    C99      C        0.90630    0.58653    0.19810    1.000
    H62      H        0.88700    0.59550    0.16140    1.000
    C100     C        0.92130    0.55830    0.19970    1.000
    H63      H        0.90610    0.54670    0.16570    1.000
    N39      N        0.87280    0.64620    0.78720    1.000
    C101     C        0.86860    0.67709    0.78310    1.000
    N40      N        0.90140    0.69165    0.73360    1.000
    C102     C        0.95380    0.67814    0.69590    1.000
    N41      N        0.97950    0.65104    0.69680    1.000
    C103     C        0.92970    0.63486    0.74150    1.000
    N42      N        0.70200    0.72004    0.91590    1.000
    C104     C        0.74350    0.73290    0.87480    1.000
    H64      H        0.73620    0.75340    0.87470    1.000
    C105     C        0.80610    0.71980    0.82320    1.000
    H65      H        0.84360    0.73090    0.79460    1.000
    C106     C        0.80210    0.68992    0.82290    1.000
    C107     C        0.75050    0.67682    0.86550    1.000
    H66      H        0.74680    0.65620    0.86580    1.000
    C108     C        0.70070    0.69260    0.91050    1.000
    H67      H        0.66250    0.68190    0.93960    1.000
    N43      N        0.09520    0.72778    0.56030    1.000
    C109     C        0.01680    0.73791    0.60080    1.000
    H68      H        0.98880    0.75680    0.59500    1.000
    C110     C        0.98390    0.72357    0.64240    1.000
    H69      H        0.94350    0.73350    0.67170    1.000
    C111     C        0.99960    0.69490    0.65070    1.000
    C112     C        0.07960    0.68370    0.61080    1.000
    H70      H        0.10400    0.66430    0.61430    1.000
    C113     C        0.11860    0.70133    0.56880    1.000
    H71      H        0.16930    0.69320    0.54260    1.000
    N44      N        0.98730    0.54510    0.74800    1.000
    C114     C        0.93920    0.56099    0.79240    1.000
    H72      H        0.91670    0.55090    0.82710    1.000
    C115     C        0.92220    0.58916    0.79010    1.000
    H73      H        0.88990    0.59820    0.82350    1.000
    C116     C        0.94720    0.60515    0.74490    1.000
    C117     C        0.00040    0.59280    0.69490    1.000
    H74      H        0.02410    0.60390    0.66180    1.000
    C118     C        0.01410    0.56290    0.69940    1.000
    H75      H        0.04490    0.55350    0.66600    1.000
    Cl6      Cl       0.04670    0.61604    0.50950    1.000
    S10      S        0.36720    0.68164    0.02500    1.000
    S11      S        0.11960    0.52074    0.06050    1.000
    C119     C        0.12530    0.50970    0.13160    1.000
    N45      N        0.08230    0.50390    0.16930    1.000
    N46      N        0.87330    0.49190    0.18020    1.000
    C120     C        0.86800    0.48010    0.13950    1.000
    S12      S        0.84510    0.46445    0.07170    1.000
    C121     C        0.57110    0.50160    0.40330    1.000
    N47      N        0.49610    0.50530    0.37640    1.000
    C122     C        0.41730    0.52300    0.39300    1.000
    N48      N        0.40150    0.50710    0.47160    1.000
    C123     C        0.48990    0.50840    0.50500    1.000
    N49      N        0.58150    0.50020    0.47320    1.000
    N50      N        0.86150    0.49350    0.30840    1.000
    C124     C        0.76510    0.50150    0.28300    1.000
    H76      H        0.76100    0.50610    0.24170    1.000
    C125     C        0.67460    0.50280    0.31800    1.000
    H77      H        0.60870    0.50830    0.30060    1.000
    C126     C        0.68040    0.49610    0.37850    1.000
    C127     C        0.77690    0.48810    0.40390    1.000
    H78      H        0.78090    0.48350    0.44520    1.000
    C128     C        0.86740    0.48670    0.36890    1.000
    H79      H        0.93330    0.48130    0.38630    1.000
    N51      N        0.13410    0.50350    0.30580    1.000
    C129     C        0.23040    0.51190    0.28160    1.000
    H80      H        0.23600    0.51520    0.23980    1.000
    C130     C        0.31850    0.51560    0.31840    1.000
    H81      H        0.38430    0.52140    0.30180    1.000
    C131     C        0.31030    0.51090    0.37950    1.000
    C132     C        0.21390    0.50240    0.40380    1.000
    H82      H        0.20830    0.49910    0.44550    1.000
    C133     C        0.12580    0.49870    0.36690    1.000
    H83      H        0.06000    0.49290    0.38350    1.000
    N52      N        0.48040    0.49478    0.68050    1.000
    C134     C        0.39230    0.50543    0.65000    1.000
    H84      H        0.32730    0.50810    0.67050    1.000
    C135     C        0.39930    0.51212    0.58960    1.000
    H85      H        0.33910    0.51940    0.56880    1.000
    C136     C        0.49440    0.50816    0.55970    1.000
    C137     C        0.58260    0.49750    0.59010    1.000
    H86      H        0.64760    0.49480    0.56960    1.000
    C138     C        0.57560    0.49081    0.65050    1.000
    H87      H        0.63580    0.48350    0.67130    1.000
    N53      N        0.09360    0.50509    0.32250    1.000
    C139     C        0.12510    0.50815    0.37130    1.000
    S13      S        0.15480    0.52063    0.43960    1.000
    N54      N        0.89840    0.50098    0.32471    1.000
    C140     C        0.86790    0.50282    0.37220    1.000
    S14      S        0.86750    0.51512    0.44303    1.000
    C141     C        0.39870    0.50070    0.09000    1.000
    N55      N        0.40000    0.49890    0.02810    1.000
    C142     C        0.49590    0.49660    0.99820    1.000
    N56      N        0.59060    0.49610    0.03030    1.000
    C143     C        0.58930    0.49790    0.09230    1.000
    N57      N        0.49340    0.50010    0.12210    1.000
    N58      N        0.12450    0.50540    0.19060    1.000
    C144     C        0.11800    0.51190    0.13010    1.000
    H88      H        0.05240    0.51790    0.11310    1.000
    C145     C        0.20750    0.50970    0.09440    1.000
    H89      H        0.20310    0.51420    0.05310    1.000
    C146     C        0.30350    0.50090    0.11930    1.000
    C147     C        0.31000    0.49430    0.17980    1.000
    H90      H        0.37570    0.48830    0.19680    1.000
    C148     C        0.22060    0.49660    0.21550    1.000
    H91      H        0.22500    0.49210    0.25680    1.000
    N59      N        0.50200    0.50850    0.81760    1.000
    C149     C        0.40930    0.51140    0.85030    1.000
    H92      H        0.34320    0.51370    0.83020    1.000
    C150     C        0.41320    0.51090    0.91230    1.000
    H93      H        0.34980    0.51290    0.93470    1.000
    C151     C        0.50980    0.50750    0.94170    1.000
    C152     C        0.60250    0.50460    0.90900    1.000
    H94      H        0.66860    0.50230    0.92900    1.000
    C153     C        0.59870    0.50510    0.84690    1.000
    H95      H        0.66200    0.50310    0.82460    1.000
    N60      N        0.84760    0.49770    0.19720    1.000
    C154     C        0.87900    0.48750    0.13390    1.000
    H96      H        0.94640    0.48220    0.11920    1.000
    C155     C        0.76590    0.48850    0.09940    1.000
    H97      H        0.76150    0.48220    0.05900    1.000
    C156     C        0.67290    0.49860    0.12860    1.000
    C157     C        0.67490    0.50760    0.18260    1.000
    H98      H        0.61100    0.51500    0.19890    1.000
    C158     C        0.75630    0.50740    0.21560    1.000
    H99      H        0.75090    0.51450    0.25530    1.000
    Cl7      Cl       0.14590    0.57530    0.56560    1.000
    C159     C        0.08110    0.57651    0.49730    1.000
    H100     H        0.12800    0.57290    0.46220    1.000
    Cl8      Cl       0.17050    0.57060    0.44830    1.000
    H101     H        0.11630    0.57070    0.53560    1.000
    Cl9      Cl       0.92490    0.56707    0.42198    1.000
    Cl10     Cl       0.89070    0.56863    0.54930    1.000
    C160     C        0.98560    0.55995    0.49700    1.000
    H102     H        0.00350    0.53890    0.50040    1.000
    Fe5      Fe       0.49223    0.00058    0.75052    1.000
    Fe6      Fe       0.14876    0.75503    0.48959    1.000
    S15      S        0.85710    0.82385    0.47920    1.000
    N61      N        0.02300    0.78184    0.49120    1.000
    C161     C        0.95250    0.80000    0.48670    1.000
    N62      N        0.28080    0.72915    0.48410    1.000
    S16      S        0.43990    0.68791    0.47010    1.000
    C162     C        0.35270    0.71390    0.48200    1.000
    C163     C        0.34560    0.82680    0.70170    1.000
    N63      N        0.39520    0.80803    0.74450    1.000
    C164     C        0.43320    0.82150    0.79200    1.000
    N64      N        0.45140    0.85198    0.79210    1.000
    C165     C        0.41590    0.86580    0.74960    1.000
    N65      N        0.37050    0.85259    0.69900    1.000
    N66      N        0.22100    0.78273    0.55970    1.000
    C166     C        0.28840    0.76900    0.59510    1.000
    H103     H        0.30690    0.74940    0.58790    1.000
    C167     C        0.32670    0.78240    0.63780    1.000
    H104     H        0.36990    0.77140    0.66420    1.000
    C168     C        0.31490    0.81103    0.65180    1.000
    C169     C        0.25240    0.82383    0.61070    1.000
    H105     H        0.24280    0.84430    0.61210    1.000
    C170     C        0.20410    0.80878    0.56870    1.000
    H106     H        0.15380    0.81840    0.54400    1.000
    N67      N        0.57490    0.77237    0.92610    1.000
    C171     C        0.48730    0.76090    0.88750    1.000
    H107     H        0.45760    0.74240    0.89580    1.000
    C172     C        0.45200    0.77570    0.84370    1.000
    H108     H        0.40350    0.76710    0.81640    1.000
    C173     C        0.48490    0.80552    0.83500    1.000
    C174     C        0.54950    0.81619    0.87630    1.000
    H109     H        0.56110    0.83650    0.87670    1.000
    C175     C        0.59870    0.80037    0.91700    1.000
    H110     H        0.65270    0.80910    0.94070    1.000
    N68      N        0.45840    0.95377    0.75020    1.000
    C176     C        0.46920    0.94030    0.79550    1.000
    H111     H        0.49200    0.94980    0.83100    1.000
    C177     C        0.44890    0.91115    0.79600    1.000
    H112     H        0.45810    0.90140    0.83300    1.000
    C178     C        0.41860    0.89573    0.75150    1.000
    C179     C        0.40630    0.91347    0.69810    1.000
    H113     H        0.38700    0.90450    0.66140    1.000
    C180     C        0.42130    0.94170    0.69970    1.000
    H114     H        0.40610    0.95330    0.66570    1.000
    N69      N        0.37280    0.85380    0.28720    1.000
    C181     C        0.36860    0.82291    0.28310    1.000
    N70      N        0.40140    0.80835    0.23360    1.000
    C182     C        0.45380    0.82186    0.19590    1.000
    N71      N        0.47950    0.84896    0.19680    1.000
    C183     C        0.42970    0.86514    0.24150    1.000
    N72      N        0.20200    0.77996    0.41590    1.000
    C184     C        0.24350    0.76710    0.37480    1.000
    H115     H        0.23620    0.74660    0.37470    1.000
    C185     C        0.30610    0.78020    0.32320    1.000
    H116     H        0.34360    0.76910    0.29460    1.000
    C186     C        0.30210    0.81008    0.32290    1.000
    C187     C        0.25050    0.82318    0.36550    1.000
    H117     H        0.24680    0.84380    0.36580    1.000
    C188     C        0.20070    0.80740    0.41050    1.000
    H118     H        0.16250    0.81810    0.43960    1.000
    N73      N        0.59520    0.77222    0.06030    1.000
    C189     C        0.51680    0.76209    0.10080    1.000
    H119     H        0.48880    0.74320    0.09500    1.000
    C190     C        0.48390    0.77643    0.14240    1.000
    H120     H        0.44350    0.76650    0.17170    1.000
    C191     C        0.49960    0.80510    0.15070    1.000
    C192     C        0.57960    0.81630    0.11080    1.000
    H121     H        0.60400    0.83570    0.11430    1.000
    C193     C        0.61860    0.79867    0.06880    1.000
    H122     H        0.66930    0.80680    0.04260    1.000
    N74      N        0.48730    0.95490    0.24800    1.000
    C194     C        0.43920    0.93901    0.29240    1.000
    H123     H        0.41670    0.94910    0.32710    1.000
    C195     C        0.42220    0.91084    0.29010    1.000
    H124     H        0.38990    0.90180    0.32350    1.000
    C196     C        0.44720    0.89485    0.24490    1.000
    C197     C        0.50040    0.90720    0.19490    1.000
    H125     H        0.52410    0.89610    0.16180    1.000
    C198     C        0.51410    0.93710    0.19940    1.000
    H126     H        0.54490    0.94650    0.16600    1.000
    Cl11     Cl       0.54670    0.88396    0.00950    1.000
    S17      S        0.86720    0.81836    0.52500    1.000
    S18      S        0.61960    0.97926    0.56050    1.000
    C199     C        0.62530    0.99030    0.63160    1.000
    N75      N        0.58230    0.99610    0.66930    1.000
    N76      N        0.37330    0.00810    0.68020    1.000
    C200     C        0.36800    0.01990    0.63950    1.000
    S19      S        0.34510    0.03555    0.57170    1.000
    C201     C        0.07110    0.99840    0.90330    1.000
    N77      N        0.99610    0.99470    0.87640    1.000
    C202     C        0.91730    0.97700    0.89300    1.000
    N78      N        0.90150    0.99290    0.97160    1.000
    C203     C        0.98990    0.99160    0.00500    1.000
    N79      N        0.08150    0.99980    0.97320    1.000
    N80      N        0.36150    0.00650    0.80840    1.000
    C204     C        0.26510    0.99850    0.78300    1.000
    H127     H        0.26100    0.99390    0.74170    1.000
    C205     C        0.17460    0.99720    0.81800    1.000
    H128     H        0.10870    0.99170    0.80060    1.000
    C206     C        0.18040    0.00390    0.87850    1.000
    C207     C        0.27690    0.01190    0.90390    1.000
    H129     H        0.28090    0.01650    0.94520    1.000
    C208     C        0.36740    0.01330    0.86890    1.000
    H130     H        0.43330    0.01870    0.88630    1.000
    N81      N        0.63410    0.99650    0.80580    1.000
    C209     C        0.73040    0.98810    0.78160    1.000
    H131     H        0.73600    0.98480    0.73980    1.000
    C210     C        0.81850    0.98440    0.81840    1.000
    H132     H        0.88430    0.97860    0.80180    1.000
    C211     C        0.81030    0.98910    0.87950    1.000
    C212     C        0.71390    0.99760    0.90380    1.000
    H133     H        0.70830    0.00090    0.94550    1.000
    C213     C        0.62580    0.00130    0.86690    1.000
    H134     H        0.56000    0.00710    0.88350    1.000
    N82      N        0.98040    0.00522    0.18050    1.000
    C214     C        0.89230    0.99457    0.15000    1.000
    H135     H        0.82730    0.99190    0.17050    1.000
    C215     C        0.89930    0.98788    0.08960    1.000
    H136     H        0.83910    0.98060    0.06880    1.000
    C216     C        0.99440    0.99184    0.05970    1.000
    C217     C        0.08260    0.00250    0.09010    1.000
    H137     H        0.14760    0.00520    0.06960    1.000
    C218     C        0.07560    0.00919    0.15050    1.000
    H138     H        0.13580    0.01650    0.17130    1.000
    N83      N        0.59360    0.99491    0.82250    1.000
    C219     C        0.62510    0.99185    0.87130    1.000
    S20      S        0.65480    0.97937    0.93960    1.000
    N84      N        0.39840    0.99902    0.82471    1.000
    C220     C        0.36790    0.99718    0.87220    1.000
    S21      S        0.36750    0.98488    0.94303    1.000
    C221     C        0.89870    0.99930    0.59000    1.000
    N85      N        0.90000    0.00110    0.52810    1.000
    C222     C        0.99590    0.00340    0.49820    1.000
    N86      N        0.09060    0.00390    0.53030    1.000
    C223     C        0.08930    0.00210    0.59230    1.000
    N87      N        0.99340    0.99990    0.62210    1.000
    N88      N        0.62450    0.99460    0.69060    1.000
    C224     C        0.61800    0.98810    0.63010    1.000
    H139     H        0.55240    0.98210    0.61310    1.000
    C225     C        0.70750    0.99030    0.59440    1.000
    H140     H        0.70310    0.98580    0.55310    1.000
    C226     C        0.80350    0.99910    0.61930    1.000
    C227     C        0.81000    0.00570    0.67980    1.000
    H141     H        0.87570    0.01170    0.69680    1.000
    C228     C        0.72060    0.00340    0.71550    1.000
    H142     H        0.72500    0.00790    0.75680    1.000
    N89      N        0.00200    0.99150    0.31760    1.000
    C229     C        0.90930    0.98860    0.35030    1.000
    H143     H        0.84320    0.98630    0.33020    1.000
    C230     C        0.91320    0.98910    0.41230    1.000
    H144     H        0.84980    0.98710    0.43470    1.000
    C231     C        0.00980    0.99250    0.44170    1.000
    C232     C        0.10250    0.99540    0.40900    1.000
    H145     H        0.16860    0.99770    0.42900    1.000
    C233     C        0.09870    0.99490    0.34690    1.000
    H146     H        0.16200    0.99690    0.32460    1.000
    N90      N        0.34760    0.00230    0.69720    1.000
    C234     C        0.37900    0.01250    0.63390    1.000
    H147     H        0.44640    0.01780    0.61920    1.000
    C235     C        0.26590    0.01150    0.59940    1.000
    H148     H        0.26150    0.01780    0.55900    1.000
    C236     C        0.17290    0.00140    0.62860    1.000
    C237     C        0.17490    0.99240    0.68260    1.000
    H149     H        0.11100    0.98500    0.69890    1.000
    C238     C        0.25630    0.99260    0.71560    1.000
    H150     H        0.25090    0.98550    0.75530    1.000
    Cl12     Cl       0.64590    0.92470    0.06560    1.000
    C239     C        0.58110    0.92349    0.99730    1.000
    H151     H        0.62800    0.92710    0.96220    1.000
    Cl13     Cl       0.67050    0.92940    0.94830    1.000
    H152     H        0.61630    0.92930    0.03560    1.000
    Cl14     Cl       0.42490    0.93293    0.92198    1.000
    Cl15     Cl       0.39070    0.93137    0.04930    1.000
    C240     C        0.48560    0.94005    0.99700    1.000
    H153     H        0.50350    0.96110    0.00040    1.000
    Fe7      Fe       0.00777    0.50058    0.74948    1.000
    Fe8      Fe       0.35124    0.25503    0.01041    1.000
    S22      S        0.64290    0.32385    0.02080    1.000
    N91      N        0.47700    0.28184    0.00880    1.000
    C241     C        0.54750    0.30000    0.01330    1.000
    N92      N        0.21920    0.22915    0.01590    1.000
    S23      S        0.06010    0.18791    0.02990    1.000
    C242     C        0.14730    0.21390    0.01800    1.000
    C243     C        0.15440    0.32680    0.79830    1.000
    N93      N        0.10480    0.30803    0.75550    1.000
    C244     C        0.06680    0.32150    0.70800    1.000
    N94      N        0.04860    0.35198    0.70790    1.000
    C245     C        0.08410    0.36580    0.75040    1.000
    N95      N        0.12950    0.35259    0.80100    1.000
    N96      N        0.27900    0.28273    0.94030    1.000
    C246     C        0.21160    0.26900    0.90490    1.000
    H154     H        0.19310    0.24940    0.91210    1.000
    C247     C        0.17330    0.28240    0.86220    1.000
    H155     H        0.13010    0.27140    0.83580    1.000
    C248     C        0.18510    0.31103    0.84820    1.000
    C249     C        0.24760    0.32383    0.88930    1.000
    H156     H        0.25720    0.34430    0.88790    1.000
    C250     C        0.29590    0.30878    0.93130    1.000
    H157     H        0.34620    0.31840    0.95600    1.000
    N97      N        0.92510    0.27237    0.57390    1.000
    C251     C        0.01270    0.26090    0.61250    1.000
    H158     H        0.04240    0.24240    0.60420    1.000
    C252     C        0.04800    0.27570    0.65630    1.000
    H159     H        0.09650    0.26710    0.68360    1.000
    C253     C        0.01510    0.30552    0.66500    1.000
    C254     C        0.95050    0.31619    0.62370    1.000
    H160     H        0.93890    0.33650    0.62330    1.000
    C255     C        0.90130    0.30037    0.58300    1.000
    H161     H        0.84730    0.30910    0.55930    1.000
    N98      N        0.04160    0.45377    0.74980    1.000
    C256     C        0.03080    0.44030    0.70450    1.000
    H162     H        0.00800    0.44980    0.66900    1.000
    C257     C        0.05110    0.41115    0.70400    1.000
    H163     H        0.04190    0.40140    0.66700    1.000
    C258     C        0.08140    0.39573    0.74850    1.000
    C259     C        0.09370    0.41347    0.80190    1.000
    H164     H        0.11300    0.40450    0.83860    1.000
    C260     C        0.07870    0.44170    0.80030    1.000
    H165     H        0.09390    0.45330    0.83430    1.000
    N99      N        0.12720    0.35380    0.21280    1.000
    C261     C        0.13140    0.32291    0.21690    1.000
    N100     N        0.09860    0.30835    0.26640    1.000
    C262     C        0.04620    0.32186    0.30410    1.000
    N101     N        0.02050    0.34896    0.30320    1.000
    C263     C        0.07030    0.36514    0.25850    1.000
    N102     N        0.29800    0.27996    0.08410    1.000
    C264     C        0.25650    0.26710    0.12520    1.000
    H166     H        0.26380    0.24660    0.12530    1.000
    C265     C        0.19390    0.28020    0.17680    1.000
    H167     H        0.15640    0.26910    0.20540    1.000
    C266     C        0.19790    0.31008    0.17710    1.000
    C267     C        0.24950    0.32318    0.13450    1.000
    H168     H        0.25320    0.34380    0.13420    1.000
    C268     C        0.29930    0.30740    0.08950    1.000
    H169     H        0.33750    0.31810    0.06040    1.000
    N103     N        0.90480    0.27222    0.43970    1.000
    C269     C        0.98320    0.26209    0.39920    1.000
    H170     H        0.01120    0.24320    0.40500    1.000
    C270     C        0.01610    0.27643    0.35760    1.000
    H171     H        0.05650    0.26650    0.32830    1.000
    C271     C        0.00040    0.30510    0.34930    1.000
    C272     C        0.92040    0.31630    0.38920    1.000
    H172     H        0.89600    0.33570    0.38570    1.000
    C273     C        0.88140    0.29867    0.43120    1.000
    H173     H        0.83070    0.30680    0.45740    1.000
    N104     N        0.01270    0.45490    0.25200    1.000
    C274     C        0.06080    0.43901    0.20760    1.000
    H174     H        0.08330    0.44910    0.17290    1.000
    C275     C        0.07780    0.41084    0.20990    1.000
    H175     H        0.11010    0.40180    0.17650    1.000
    C276     C        0.05280    0.39485    0.25510    1.000
    C277     C        0.99960    0.40720    0.30510    1.000
    H176     H        0.97590    0.39610    0.33820    1.000
    C278     C        0.98590    0.43710    0.30060    1.000
    H177     H        0.95510    0.44650    0.33400    1.000
    Cl16     Cl       0.95330    0.38396    0.49050    1.000
    S24      S        0.63280    0.31836    0.97500    1.000
    S25      S        0.88040    0.47926    0.93950    1.000
    C279     C        0.87470    0.49030    0.86840    1.000
    N105     N        0.91770    0.49610    0.83070    1.000
    N106     N        0.12670    0.50810    0.81980    1.000
    C280     C        0.13200    0.51990    0.86050    1.000
    S26      S        0.15490    0.53555    0.92830    1.000
    C281     C        0.42890    0.49840    0.59670    1.000
    N107     N        0.50390    0.49470    0.62360    1.000
    C282     C        0.58270    0.47700    0.60700    1.000
    N108     N        0.59850    0.49290    0.52840    1.000
    C283     C        0.51010    0.49160    0.49500    1.000
    N109     N        0.41850    0.49980    0.52680    1.000
    N110     N        0.13850    0.50650    0.69160    1.000
    C284     C        0.23490    0.49850    0.71700    1.000
    H178     H        0.23900    0.49390    0.75830    1.000
    C285     C        0.32540    0.49720    0.68200    1.000
    H179     H        0.39130    0.49170    0.69940    1.000
    C286     C        0.31960    0.50390    0.62150    1.000
    C287     C        0.22310    0.51190    0.59610    1.000
    H180     H        0.21910    0.51650    0.55480    1.000
    C288     C        0.13260    0.51330    0.63110    1.000
    H181     H        0.06670    0.51870    0.61370    1.000
    N111     N        0.86590    0.49650    0.69420    1.000
    C289     C        0.76960    0.48810    0.71840    1.000
    H182     H        0.76400    0.48480    0.76020    1.000
    C290     C        0.68150    0.48440    0.68160    1.000
    H183     H        0.61570    0.47860    0.69820    1.000
    C291     C        0.68970    0.48910    0.62050    1.000
    C292     C        0.78610    0.49760    0.59620    1.000
    H184     H        0.79170    0.50090    0.55450    1.000
    C293     C        0.87420    0.50130    0.63310    1.000
    H185     H        0.94000    0.50710    0.61650    1.000
    N112     N        0.51960    0.50522    0.31950    1.000
    C294     C        0.60770    0.49457    0.35000    1.000
    H186     H        0.67270    0.49190    0.32950    1.000
    C295     C        0.60070    0.48788    0.41040    1.000
    H187     H        0.66090    0.48060    0.43120    1.000
    C296     C        0.50560    0.49184    0.44030    1.000
    C297     C        0.41740    0.50250    0.40990    1.000
    H188     H        0.35240    0.50520    0.43040    1.000
    C298     C        0.42440    0.50919    0.34950    1.000
    H189     H        0.36420    0.51650    0.32870    1.000
    N113     N        0.90640    0.49491    0.67750    1.000
    C299     C        0.87490    0.49185    0.62870    1.000
    S27      S        0.84520    0.47937    0.56040    1.000
    N114     N        0.10160    0.49902    0.67529    1.000
    C300     C        0.13210    0.49718    0.62780    1.000
    S28      S        0.13250    0.48488    0.55697    1.000
    C301     C        0.60130    0.49930    0.91000    1.000
    N115     N        0.60000    0.50110    0.97190    1.000
    C302     C        0.50410    0.50340    0.00180    1.000
    N116     N        0.40940    0.50390    0.96970    1.000
    C303     C        0.41070    0.50210    0.90770    1.000
    N117     N        0.50660    0.49990    0.87790    1.000
    N118     N        0.87550    0.49460    0.80940    1.000
    C304     C        0.88200    0.48810    0.86990    1.000
    H190     H        0.94760    0.48210    0.88690    1.000
    C305     C        0.79250    0.49030    0.90560    1.000
    H191     H        0.79690    0.48580    0.94690    1.000
    C306     C        0.69650    0.49910    0.88070    1.000
    C307     C        0.69000    0.50570    0.82020    1.000
    H192     H        0.62430    0.51170    0.80320    1.000
    C308     C        0.77940    0.50340    0.78450    1.000
    H193     H        0.77500    0.50790    0.74320    1.000
    N119     N        0.49800    0.49150    0.18240    1.000
    C309     C        0.59070    0.48860    0.14970    1.000
    H194     H        0.65680    0.48630    0.16980    1.000
    C310     C        0.58680    0.48910    0.08770    1.000
    H195     H        0.65020    0.48710    0.06530    1.000
    C311     C        0.49020    0.49250    0.05830    1.000
    C312     C        0.39750    0.49540    0.09100    1.000
    H196     H        0.33140    0.49770    0.07100    1.000
    C313     C        0.40130    0.49490    0.15310    1.000
    H197     H        0.33800    0.49690    0.17540    1.000
    N120     N        0.15240    0.50230    0.80280    1.000
    C314     C        0.12100    0.51250    0.86610    1.000
    H198     H        0.05360    0.51780    0.88080    1.000
    C315     C        0.23410    0.51150    0.90060    1.000
    H199     H        0.23850    0.51780    0.94100    1.000
    C316     C        0.32710    0.50140    0.87140    1.000
    C317     C        0.32510    0.49240    0.81740    1.000
    H200     H        0.38900    0.48500    0.80110    1.000
    C318     C        0.24370    0.49260    0.78440    1.000
    H201     H        0.24910    0.48550    0.74470    1.000
    Cl17     Cl       0.85410    0.42470    0.43440    1.000
    C319     C        0.91890    0.42349    0.50270    1.000
    H202     H        0.87200    0.42710    0.53780    1.000
    Cl18     Cl       0.82950    0.42940    0.55170    1.000
    H203     H        0.88370    0.42930    0.46440    1.000
    Cl19     Cl       0.07510    0.43293    0.57802    1.000
    Cl20     Cl       0.10930    0.43137    0.45070    1.000
    C320     C        0.01440    0.44005    0.50300    1.000
    H204     H        0.99650    0.46110    0.49960    1.000
