# CIF file generated by openbabel 3.1.0, see https://openbabel.org
data_I
_chemical_name_common 'image0'
_cell_length_a 8.787
_cell_length_b 17.783
_cell_length_c 9.204
_cell_angle_alpha 90
_cell_angle_beta 109.56
_cell_angle_gamma 90
_space_group_name_H-M_alt 'P 1'
_space_group_name_Hall 'P 1'
loop_
    _symmetry_equiv_pos_as_xyz
    x,y,z
loop_
    _atom_site_label
    _atom_site_type_symbol
    _atom_site_fract_x
    _atom_site_fract_y
    _atom_site_fract_z
    _atom_site_occupancy
    Ga1      Ga       0.06790    0.29490    0.30360    1.000
    Ga2      Ga       0.13550    0.11000    0.16580    1.000
    Ga3      Ga       0.51350    0.32910    0.19620    1.000
    P1       P        0.34120    0.42940    0.36980    1.000
    P2       P        0.80270    0.28870    0.48310    1.000
    P3       P        0.24830    0.16130    0.50890    1.000
    O1       O        0.03490    0.20950    0.17830    1.000
    O2       O        0.19490    0.37820    0.31460    1.000
    O3       O        0.24200    0.24420    0.46200    1.000
    O4       O        0.95020    0.30320    0.43910    1.000
    O5       O        0.40330    0.14680    0.64250    1.000
    O6       O        0.45840    0.41250    0.28020    1.000
    O7       O        0.82920    0.22070    0.59260    1.000
    O8       O        0.10120    0.13840    0.55550    1.000
    O9       O        0.65400    0.26960    0.34280    1.000
    O10      O        0.24470    0.10880    0.37620    1.000
    O11      O        0.42900    0.41900    0.54260    1.000
    O12      O        0.27820    0.50920    0.33560    1.000
    O13      O        0.77320    0.35930    0.56270    1.000
    H1       H        0.92100    0.21100    0.09500    1.000
    Ga4      Ga       0.43210    0.79490    0.19640    1.000
    Ga5      Ga       0.36450    0.61000    0.33420    1.000
    Ga6      Ga       0.98650    0.82910    0.30380    1.000
    P4       P        0.15880    0.92940    0.13020    1.000
    P5       P        0.69730    0.78870    0.01690    1.000
    P6       P        0.25170    0.66130    0.99110    1.000
    O14      O        0.46510    0.70950    0.32170    1.000
    O15      O        0.30510    0.87820    0.18540    1.000
    O16      O        0.25800    0.74420    0.03800    1.000
    O17      O        0.54980    0.80320    0.06090    1.000
    O18      O        0.09670    0.64680    0.85750    1.000
    O19      O        0.04160    0.91250    0.21980    1.000
    O20      O        0.67080    0.72070    0.90740    1.000
    O21      O        0.39880    0.63840    0.94450    1.000
    O22      O        0.84600    0.76960    0.15720    1.000
    O23      O        0.25530    0.60880    0.12380    1.000
    O24      O        0.07100    0.91900    0.95740    1.000
    O25      O        0.22180    0.00920    0.16440    1.000
    O26      O        0.72680    0.85930    0.93730    1.000
    H2       H        0.57900    0.71100    0.40500    1.000
    Ga7      Ga       0.93210    0.70510    0.69640    1.000
    Ga8      Ga       0.86450    0.89000    0.83420    1.000
    Ga9      Ga       0.48650    0.67090    0.80380    1.000
    P7       P        0.65880    0.57060    0.63020    1.000
    P8       P        0.19730    0.71130    0.51690    1.000
    P9       P        0.75170    0.83870    0.49110    1.000
    O27      O        0.96510    0.79050    0.82170    1.000
    O28      O        0.80510    0.62180    0.68540    1.000
    O29      O        0.75800    0.75580    0.53800    1.000
    O30      O        0.04980    0.69680    0.56090    1.000
    O31      O        0.59670    0.85320    0.35750    1.000
    O32      O        0.54160    0.58750    0.71980    1.000
    O33      O        0.17080    0.77930    0.40740    1.000
    O34      O        0.89880    0.86160    0.44450    1.000
    O35      O        0.34600    0.73040    0.65720    1.000
    O36      O        0.75530    0.89120    0.62380    1.000
    O37      O        0.57100    0.58100    0.45740    1.000
    O38      O        0.72180    0.49080    0.66440    1.000
    O39      O        0.22680    0.64070    0.43730    1.000
    H3       H        0.07900    0.78900    0.90500    1.000
    Ga10     Ga       0.56790    0.20510    0.80360    1.000
    Ga11     Ga       0.63550    0.39000    0.66580    1.000
    Ga12     Ga       0.01350    0.17090    0.69620    1.000
    P10      P        0.84120    0.07060    0.86980    1.000
    P11      P        0.30270    0.21130    0.98310    1.000
    P12      P        0.74830    0.33870    0.00890    1.000
    O40      O        0.53490    0.29050    0.67830    1.000
    O41      O        0.69490    0.12180    0.81460    1.000
    O42      O        0.74200    0.25580    0.96200    1.000
    O43      O        0.45020    0.19680    0.93910    1.000
    O44      O        0.90330    0.35320    0.14250    1.000
    O45      O        0.95840    0.08750    0.78020    1.000
    O46      O        0.32920    0.27930    0.09260    1.000
    O47      O        0.60120    0.36160    0.05550    1.000
    O48      O        0.15400    0.23040    0.84280    1.000
    O49      O        0.74470    0.39120    0.87620    1.000
    O50      O        0.92900    0.08100    0.04260    1.000
    O51      O        0.77820    0.99080    0.83560    1.000
    O52      O        0.27320    0.14070    0.06270    1.000
    H4       H        0.42100    0.28900    0.59500    1.000
