# CIF file generated by openbabel 3.1.0, see https://openbabel.org
data_I
_chemical_name_common 'image0'
_cell_length_a 22.4704
_cell_length_b 22.4704
_cell_length_c 22.4704
_cell_angle_alpha 90
_cell_angle_beta 90
_cell_angle_gamma 90
_space_group_name_H-M_alt 'P 1'
_space_group_name_Hall 'P 1'
loop_
    _symmetry_equiv_pos_as_xyz
    x,y,z
loop_
    _atom_site_label
    _atom_site_type_symbol
    _atom_site_fract_x
    _atom_site_fract_y
    _atom_site_fract_z
    _atom_site_occupancy
    Mn1      Mn       0.17635    0.31040    0.24086    1.000
    C1       C        0.20605    0.29090    0.87830    1.000
    C2       C        0.19578    0.27895    0.10461    1.000
    C3       C        0.16608    0.28110    0.04265    1.000
    C4       C        0.19937    0.28291    0.99068    1.000
    H1       H        0.24070    0.28120    0.99290    1.000
    C5       C        0.17226    0.28722    0.93568    1.000
    C6       C        0.10583    0.28210    0.03929    1.000
    H2       H        0.08350    0.28160    0.07410    1.000
    C7       C        0.11052    0.28690    0.93278    1.000
    H3       H        0.09150    0.28880    0.89610    1.000
    C8       C        0.07702    0.28380    0.98504    1.000
    O1       O        0.17509    0.30077    0.83191    1.000
    O2       O        0.16200    0.28884    0.14726    1.000
    O3       O        0.24985    0.26695    0.10513    1.000
    O4       O        0.26109    0.28213    0.88058    1.000
    N1       N        0.01373    0.28290    0.97732    1.000
    Mn2      Mn       0.82365    0.68960    0.24086    1.000
    C9       C        0.79395    0.70910    0.87830    1.000
    C10      C        0.80422    0.72105    0.10461    1.000
    C11      C        0.83392    0.71890    0.04265    1.000
    C12      C        0.80063    0.71709    0.99068    1.000
    H4       H        0.75930    0.71880    0.99290    1.000
    C13      C        0.82774    0.71278    0.93568    1.000
    C14      C        0.89417    0.71790    0.03929    1.000
    H5       H        0.91650    0.71840    0.07410    1.000
    C15      C        0.88948    0.71310    0.93278    1.000
    H6       H        0.90850    0.71120    0.89610    1.000
    C16      C        0.92298    0.71620    0.98504    1.000
    O5       O        0.82491    0.69923    0.83191    1.000
    O6       O        0.83800    0.71116    0.14726    1.000
    O7       O        0.75015    0.73305    0.10513    1.000
    O8       O        0.73891    0.71787    0.88058    1.000
    N2       N        0.98627    0.71710    0.97732    1.000
    Mn3      Mn       0.82365    0.31040    0.75914    1.000
    C17      C        0.79395    0.29090    0.12170    1.000
    C18      C        0.80422    0.27895    0.89539    1.000
    C19      C        0.83392    0.28110    0.95735    1.000
    C20      C        0.80063    0.28291    0.00932    1.000
    H7       H        0.75930    0.28120    0.00710    1.000
    C21      C        0.82774    0.28722    0.06432    1.000
    C22      C        0.89417    0.28210    0.96071    1.000
    H8       H        0.91650    0.28160    0.92590    1.000
    C23      C        0.88948    0.28690    0.06722    1.000
    H9       H        0.90850    0.28880    0.10390    1.000
    C24      C        0.92298    0.28380    0.01496    1.000
    O9       O        0.82491    0.30077    0.16809    1.000
    O10      O        0.83800    0.28884    0.85274    1.000
    O11      O        0.75015    0.26695    0.89487    1.000
    O12      O        0.73891    0.28213    0.11942    1.000
    N3       N        0.98627    0.28290    0.02268    1.000
    Mn4      Mn       0.17635    0.68960    0.75914    1.000
    C25      C        0.20605    0.70910    0.12170    1.000
    C26      C        0.19578    0.72105    0.89539    1.000
    C27      C        0.16608    0.71890    0.95735    1.000
    C28      C        0.19937    0.71709    0.00932    1.000
    H10      H        0.24070    0.71880    0.00710    1.000
    C29      C        0.17226    0.71278    0.06432    1.000
    C30      C        0.10583    0.71790    0.96071    1.000
    H11      H        0.08350    0.71840    0.92590    1.000
    C31      C        0.11052    0.71310    0.06722    1.000
    H12      H        0.09150    0.71120    0.10390    1.000
    C32      C        0.07702    0.71620    0.01496    1.000
    O13      O        0.17509    0.69923    0.16809    1.000
    O14      O        0.16200    0.71116    0.85274    1.000
    O15      O        0.24985    0.73305    0.89487    1.000
    O16      O        0.26109    0.71787    0.11942    1.000
    N4       N        0.01373    0.71710    0.02268    1.000
    Mn5      Mn       0.24086    0.17635    0.31040    1.000
    C33      C        0.87830    0.20605    0.29090    1.000
    C34      C        0.10461    0.19578    0.27895    1.000
    C35      C        0.04265    0.16608    0.28110    1.000
    C36      C        0.99068    0.19937    0.28291    1.000
    H13      H        0.99290    0.24070    0.28120    1.000
    C37      C        0.93568    0.17226    0.28722    1.000
    C38      C        0.03929    0.10583    0.28210    1.000
    H14      H        0.07410    0.08350    0.28160    1.000
    C39      C        0.93278    0.11052    0.28690    1.000
    H15      H        0.89610    0.09150    0.28880    1.000
    C40      C        0.98504    0.07702    0.28380    1.000
    O17      O        0.83191    0.17509    0.30077    1.000
    O18      O        0.14726    0.16200    0.28884    1.000
    O19      O        0.10513    0.24985    0.26695    1.000
    O20      O        0.88058    0.26109    0.28213    1.000
    N5       N        0.97732    0.01373    0.28290    1.000
    Mn6      Mn       0.24086    0.82365    0.68960    1.000
    C41      C        0.87830    0.79395    0.70910    1.000
    C42      C        0.10461    0.80422    0.72105    1.000
    C43      C        0.04265    0.83392    0.71890    1.000
    C44      C        0.99068    0.80063    0.71709    1.000
    H16      H        0.99290    0.75930    0.71880    1.000
    C45      C        0.93568    0.82774    0.71278    1.000
    C46      C        0.03929    0.89417    0.71790    1.000
    H17      H        0.07410    0.91650    0.71840    1.000
    C47      C        0.93278    0.88948    0.71310    1.000
    H18      H        0.89610    0.90850    0.71120    1.000
    C48      C        0.98504    0.92298    0.71620    1.000
    O21      O        0.83191    0.82491    0.69923    1.000
    O22      O        0.14726    0.83800    0.71116    1.000
    O23      O        0.10513    0.75015    0.73305    1.000
    O24      O        0.88058    0.73891    0.71787    1.000
    N6       N        0.97732    0.98627    0.71710    1.000
    Mn7      Mn       0.75914    0.82365    0.31040    1.000
    C49      C        0.12170    0.79395    0.29090    1.000
    C50      C        0.89539    0.80422    0.27895    1.000
    C51      C        0.95735    0.83392    0.28110    1.000
    C52      C        0.00932    0.80063    0.28291    1.000
    H19      H        0.00710    0.75930    0.28120    1.000
    C53      C        0.06432    0.82774    0.28722    1.000
    C54      C        0.96071    0.89417    0.28210    1.000
    H20      H        0.92590    0.91650    0.28160    1.000
    C55      C        0.06722    0.88948    0.28690    1.000
    H21      H        0.10390    0.90850    0.28880    1.000
    C56      C        0.01496    0.92298    0.28380    1.000
    O25      O        0.16809    0.82491    0.30077    1.000
    O26      O        0.85274    0.83800    0.28884    1.000
    O27      O        0.89487    0.75015    0.26695    1.000
    O28      O        0.11942    0.73891    0.28213    1.000
    N7       N        0.02268    0.98627    0.28290    1.000
    Mn8      Mn       0.75914    0.17635    0.68960    1.000
    C57      C        0.12170    0.20605    0.70910    1.000
    C58      C        0.89539    0.19578    0.72105    1.000
    C59      C        0.95735    0.16608    0.71890    1.000
    C60      C        0.00932    0.19937    0.71709    1.000
    H22      H        0.00710    0.24070    0.71880    1.000
    C61      C        0.06432    0.17226    0.71278    1.000
    C62      C        0.96071    0.10583    0.71790    1.000
    H23      H        0.92590    0.08350    0.71840    1.000
    C63      C        0.06722    0.11052    0.71310    1.000
    H24      H        0.10390    0.09150    0.71120    1.000
    C64      C        0.01496    0.07702    0.71620    1.000
    O29      O        0.16809    0.17509    0.69923    1.000
    O30      O        0.85274    0.16200    0.71116    1.000
    O31      O        0.89487    0.24985    0.73305    1.000
    O32      O        0.11942    0.26109    0.71787    1.000
    N8       N        0.02268    0.01373    0.71710    1.000
    Mn9      Mn       0.31040    0.24086    0.17635    1.000
    C65      C        0.29090    0.87830    0.20605    1.000
    C66      C        0.27895    0.10461    0.19578    1.000
    C67      C        0.28110    0.04265    0.16608    1.000
    C68      C        0.28291    0.99068    0.19937    1.000
    H25      H        0.28120    0.99290    0.24070    1.000
    C69      C        0.28722    0.93568    0.17226    1.000
    C70      C        0.28210    0.03929    0.10583    1.000
    H26      H        0.28160    0.07410    0.08350    1.000
    C71      C        0.28690    0.93278    0.11052    1.000
    H27      H        0.28880    0.89610    0.09150    1.000
    C72      C        0.28380    0.98504    0.07702    1.000
    O33      O        0.30077    0.83191    0.17509    1.000
    O34      O        0.28884    0.14726    0.16200    1.000
    O35      O        0.26695    0.10513    0.24985    1.000
    O36      O        0.28213    0.88058    0.26109    1.000
    N9       N        0.28290    0.97732    0.01373    1.000
    Mn10     Mn       0.68960    0.24086    0.82365    1.000
    C73      C        0.70910    0.87830    0.79395    1.000
    C74      C        0.72105    0.10461    0.80422    1.000
    C75      C        0.71890    0.04265    0.83392    1.000
    C76      C        0.71709    0.99068    0.80063    1.000
    H28      H        0.71880    0.99290    0.75930    1.000
    C77      C        0.71278    0.93568    0.82774    1.000
    C78      C        0.71790    0.03929    0.89417    1.000
    H29      H        0.71840    0.07410    0.91650    1.000
    C79      C        0.71310    0.93278    0.88948    1.000
    H30      H        0.71120    0.89610    0.90850    1.000
    C80      C        0.71620    0.98504    0.92298    1.000
    O37      O        0.69923    0.83191    0.82491    1.000
    O38      O        0.71116    0.14726    0.83800    1.000
    O39      O        0.73305    0.10513    0.75015    1.000
    O40      O        0.71787    0.88058    0.73891    1.000
    N10      N        0.71710    0.97732    0.98627    1.000
    Mn11     Mn       0.31040    0.75914    0.82365    1.000
    C81      C        0.29090    0.12170    0.79395    1.000
    C82      C        0.27895    0.89539    0.80422    1.000
    C83      C        0.28110    0.95735    0.83392    1.000
    C84      C        0.28291    0.00932    0.80063    1.000
    H31      H        0.28120    0.00710    0.75930    1.000
    C85      C        0.28722    0.06432    0.82774    1.000
    C86      C        0.28210    0.96071    0.89417    1.000
    H32      H        0.28160    0.92590    0.91650    1.000
    C87      C        0.28690    0.06722    0.88948    1.000
    H33      H        0.28880    0.10390    0.90850    1.000
    C88      C        0.28380    0.01496    0.92298    1.000
    O41      O        0.30077    0.16809    0.82491    1.000
    O42      O        0.28884    0.85274    0.83800    1.000
    O43      O        0.26695    0.89487    0.75015    1.000
    O44      O        0.28213    0.11942    0.73891    1.000
    N11      N        0.28290    0.02268    0.98627    1.000
    Mn12     Mn       0.68960    0.75914    0.17635    1.000
    C89      C        0.70910    0.12170    0.20605    1.000
    C90      C        0.72105    0.89539    0.19578    1.000
    C91      C        0.71890    0.95735    0.16608    1.000
    C92      C        0.71709    0.00932    0.19937    1.000
    H34      H        0.71880    0.00710    0.24070    1.000
    C93      C        0.71278    0.06432    0.17226    1.000
    C94      C        0.71790    0.96071    0.10583    1.000
    H35      H        0.71840    0.92590    0.08350    1.000
    C95      C        0.71310    0.06722    0.11052    1.000
    H36      H        0.71120    0.10390    0.09150    1.000
    C96      C        0.71620    0.01496    0.07702    1.000
    O45      O        0.69923    0.16809    0.17509    1.000
    O46      O        0.71116    0.85274    0.16200    1.000
    O47      O        0.73305    0.89487    0.24985    1.000
    O48      O        0.71787    0.11942    0.26109    1.000
    N12      N        0.71710    0.02268    0.01373    1.000
    Mn13     Mn       0.81040    0.67635    0.74086    1.000
    C97      C        0.79090    0.70605    0.37830    1.000
    C98      C        0.77895    0.69578    0.60461    1.000
    C99      C        0.78110    0.66608    0.54265    1.000
    C100     C        0.78291    0.69937    0.49068    1.000
    H37      H        0.78120    0.74070    0.49290    1.000
    C101     C        0.78722    0.67226    0.43568    1.000
    C102     C        0.78210    0.60583    0.53929    1.000
    H38      H        0.78160    0.58350    0.57410    1.000
    C103     C        0.78690    0.61052    0.43278    1.000
    H39      H        0.78880    0.59150    0.39610    1.000
    C104     C        0.78380    0.57702    0.48504    1.000
    O49      O        0.80077    0.67509    0.33191    1.000
    O50      O        0.78884    0.66200    0.64726    1.000
    O51      O        0.76695    0.74985    0.60513    1.000
    O52      O        0.78213    0.76109    0.38058    1.000
    N13      N        0.78290    0.51373    0.47732    1.000
    Mn14     Mn       0.18960    0.32365    0.74086    1.000
    C105     C        0.20910    0.29395    0.37830    1.000
    C106     C        0.22105    0.30422    0.60461    1.000
    C107     C        0.21890    0.33392    0.54265    1.000
    C108     C        0.21709    0.30063    0.49068    1.000
    H40      H        0.21880    0.25930    0.49290    1.000
    C109     C        0.21278    0.32774    0.43568    1.000
    C110     C        0.21790    0.39417    0.53929    1.000
    H41      H        0.21840    0.41650    0.57410    1.000
    C111     C        0.21310    0.38948    0.43278    1.000
    H42      H        0.21120    0.40850    0.39610    1.000
    C112     C        0.21620    0.42298    0.48504    1.000
    O53      O        0.19923    0.32491    0.33191    1.000
    O54      O        0.21116    0.33800    0.64726    1.000
    O55      O        0.23305    0.25015    0.60513    1.000
    O56      O        0.21787    0.23891    0.38058    1.000
    N14      N        0.21710    0.48627    0.47732    1.000
    Mn15     Mn       0.81040    0.32365    0.25914    1.000
    C113     C        0.79090    0.29395    0.62170    1.000
    C114     C        0.77895    0.30422    0.39539    1.000
    C115     C        0.78110    0.33392    0.45735    1.000
    C116     C        0.78291    0.30063    0.50932    1.000
    H43      H        0.78120    0.25930    0.50710    1.000
    C117     C        0.78722    0.32774    0.56432    1.000
    C118     C        0.78210    0.39417    0.46071    1.000
    H44      H        0.78160    0.41650    0.42590    1.000
    C119     C        0.78690    0.38948    0.56722    1.000
    H45      H        0.78880    0.40850    0.60390    1.000
    C120     C        0.78380    0.42298    0.51496    1.000
    O57      O        0.80077    0.32491    0.66809    1.000
    O58      O        0.78884    0.33800    0.35274    1.000
    O59      O        0.76695    0.25015    0.39487    1.000
    O60      O        0.78213    0.23891    0.61942    1.000
    N15      N        0.78290    0.48627    0.52268    1.000
    Mn16     Mn       0.18960    0.67635    0.25914    1.000
    C121     C        0.20910    0.70605    0.62170    1.000
    C122     C        0.22105    0.69578    0.39539    1.000
    C123     C        0.21890    0.66608    0.45735    1.000
    C124     C        0.21709    0.69937    0.50932    1.000
    H46      H        0.21880    0.74070    0.50710    1.000
    C125     C        0.21278    0.67226    0.56432    1.000
    C126     C        0.21790    0.60583    0.46071    1.000
    H47      H        0.21840    0.58350    0.42590    1.000
    C127     C        0.21310    0.61052    0.56722    1.000
    H48      H        0.21120    0.59150    0.60390    1.000
    C128     C        0.21620    0.57702    0.51496    1.000
    O61      O        0.19923    0.67509    0.66809    1.000
    O62      O        0.21116    0.66200    0.35274    1.000
    O63      O        0.23305    0.74985    0.39487    1.000
    O64      O        0.21787    0.76109    0.61942    1.000
    N16      N        0.21710    0.51373    0.52268    1.000
    Mn17     Mn       0.67635    0.74086    0.81040    1.000
    C129     C        0.70605    0.37830    0.79090    1.000
    C130     C        0.69578    0.60461    0.77895    1.000
    C131     C        0.66608    0.54265    0.78110    1.000
    C132     C        0.69937    0.49068    0.78291    1.000
    H49      H        0.74070    0.49290    0.78120    1.000
    C133     C        0.67226    0.43568    0.78722    1.000
    C134     C        0.60583    0.53929    0.78210    1.000
    H50      H        0.58350    0.57410    0.78160    1.000
    C135     C        0.61052    0.43278    0.78690    1.000
    H51      H        0.59150    0.39610    0.78880    1.000
    C136     C        0.57702    0.48504    0.78380    1.000
    O65      O        0.67509    0.33191    0.80077    1.000
    O66      O        0.66200    0.64726    0.78884    1.000
    O67      O        0.74985    0.60513    0.76695    1.000
    O68      O        0.76109    0.38058    0.78213    1.000
    N17      N        0.51373    0.47732    0.78290    1.000
    Mn18     Mn       0.32365    0.74086    0.18960    1.000
    C137     C        0.29395    0.37830    0.20910    1.000
    C138     C        0.30422    0.60461    0.22105    1.000
    C139     C        0.33392    0.54265    0.21890    1.000
    C140     C        0.30063    0.49068    0.21709    1.000
    H52      H        0.25930    0.49290    0.21880    1.000
    C141     C        0.32774    0.43568    0.21278    1.000
    C142     C        0.39417    0.53929    0.21790    1.000
    H53      H        0.41650    0.57410    0.21840    1.000
    C143     C        0.38948    0.43278    0.21310    1.000
    H54      H        0.40850    0.39610    0.21120    1.000
    C144     C        0.42298    0.48504    0.21620    1.000
    O69      O        0.32491    0.33191    0.19923    1.000
    O70      O        0.33800    0.64726    0.21116    1.000
    O71      O        0.25015    0.60513    0.23305    1.000
    O72      O        0.23891    0.38058    0.21787    1.000
    N18      N        0.48627    0.47732    0.21710    1.000
    Mn19     Mn       0.32365    0.25914    0.81040    1.000
    C145     C        0.29395    0.62170    0.79090    1.000
    C146     C        0.30422    0.39539    0.77895    1.000
    C147     C        0.33392    0.45735    0.78110    1.000
    C148     C        0.30063    0.50932    0.78291    1.000
    H55      H        0.25930    0.50710    0.78120    1.000
    C149     C        0.32774    0.56432    0.78722    1.000
    C150     C        0.39417    0.46071    0.78210    1.000
    H56      H        0.41650    0.42590    0.78160    1.000
    C151     C        0.38948    0.56722    0.78690    1.000
    H57      H        0.40850    0.60390    0.78880    1.000
    C152     C        0.42298    0.51496    0.78380    1.000
    O73      O        0.32491    0.66809    0.80077    1.000
    O74      O        0.33800    0.35274    0.78884    1.000
    O75      O        0.25015    0.39487    0.76695    1.000
    O76      O        0.23891    0.61942    0.78213    1.000
    N19      N        0.48627    0.52268    0.78290    1.000
    Mn20     Mn       0.67635    0.25914    0.18960    1.000
    C153     C        0.70605    0.62170    0.20910    1.000
    C154     C        0.69578    0.39539    0.22105    1.000
    C155     C        0.66608    0.45735    0.21890    1.000
    C156     C        0.69937    0.50932    0.21709    1.000
    H58      H        0.74070    0.50710    0.21880    1.000
    C157     C        0.67226    0.56432    0.21278    1.000
    C158     C        0.60583    0.46071    0.21790    1.000
    H59      H        0.58350    0.42590    0.21840    1.000
    C159     C        0.61052    0.56722    0.21310    1.000
    H60      H        0.59150    0.60390    0.21120    1.000
    C160     C        0.57702    0.51496    0.21620    1.000
    O77      O        0.67509    0.66809    0.19923    1.000
    O78      O        0.66200    0.35274    0.21116    1.000
    O79      O        0.74985    0.39487    0.23305    1.000
    O80      O        0.76109    0.61942    0.21787    1.000
    N20      N        0.51373    0.52268    0.21710    1.000
    Mn21     Mn       0.74086    0.81040    0.67635    1.000
    C161     C        0.37830    0.79090    0.70605    1.000
    C162     C        0.60461    0.77895    0.69578    1.000
    C163     C        0.54265    0.78110    0.66608    1.000
    C164     C        0.49068    0.78291    0.69937    1.000
    H61      H        0.49290    0.78120    0.74070    1.000
    C165     C        0.43568    0.78722    0.67226    1.000
    C166     C        0.53929    0.78210    0.60583    1.000
    H62      H        0.57410    0.78160    0.58350    1.000
    C167     C        0.43278    0.78690    0.61052    1.000
    H63      H        0.39610    0.78880    0.59150    1.000
    C168     C        0.48504    0.78380    0.57702    1.000
    O81      O        0.33191    0.80077    0.67509    1.000
    O82      O        0.64726    0.78884    0.66200    1.000
    O83      O        0.60513    0.76695    0.74985    1.000
    O84      O        0.38058    0.78213    0.76109    1.000
    N21      N        0.47732    0.78290    0.51373    1.000
    Mn22     Mn       0.74086    0.18960    0.32365    1.000
    C169     C        0.37830    0.20910    0.29395    1.000
    C170     C        0.60461    0.22105    0.30422    1.000
    C171     C        0.54265    0.21890    0.33392    1.000
    C172     C        0.49068    0.21709    0.30063    1.000
    H64      H        0.49290    0.21880    0.25930    1.000
    C173     C        0.43568    0.21278    0.32774    1.000
    C174     C        0.53929    0.21790    0.39417    1.000
    H65      H        0.57410    0.21840    0.41650    1.000
    C175     C        0.43278    0.21310    0.38948    1.000
    H66      H        0.39610    0.21120    0.40850    1.000
    C176     C        0.48504    0.21620    0.42298    1.000
    O85      O        0.33191    0.19923    0.32491    1.000
    O86      O        0.64726    0.21116    0.33800    1.000
    O87      O        0.60513    0.23305    0.25015    1.000
    O88      O        0.38058    0.21787    0.23891    1.000
    N22      N        0.47732    0.21710    0.48627    1.000
    Mn23     Mn       0.25914    0.81040    0.32365    1.000
    C177     C        0.62170    0.79090    0.29395    1.000
    C178     C        0.39539    0.77895    0.30422    1.000
    C179     C        0.45735    0.78110    0.33392    1.000
    C180     C        0.50932    0.78291    0.30063    1.000
    H67      H        0.50710    0.78120    0.25930    1.000
    C181     C        0.56432    0.78722    0.32774    1.000
    C182     C        0.46071    0.78210    0.39417    1.000
    H68      H        0.42590    0.78160    0.41650    1.000
    C183     C        0.56722    0.78690    0.38948    1.000
    H69      H        0.60390    0.78880    0.40850    1.000
    C184     C        0.51496    0.78380    0.42298    1.000
    O89      O        0.66809    0.80077    0.32491    1.000
    O90      O        0.35274    0.78884    0.33800    1.000
    O91      O        0.39487    0.76695    0.25015    1.000
    O92      O        0.61942    0.78213    0.23891    1.000
    N23      N        0.52268    0.78290    0.48627    1.000
    Mn24     Mn       0.25914    0.18960    0.67635    1.000
    C185     C        0.62170    0.20910    0.70605    1.000
    C186     C        0.39539    0.22105    0.69578    1.000
    C187     C        0.45735    0.21890    0.66608    1.000
    C188     C        0.50932    0.21709    0.69937    1.000
    H70      H        0.50710    0.21880    0.74070    1.000
    C189     C        0.56432    0.21278    0.67226    1.000
    C190     C        0.46071    0.21790    0.60583    1.000
    H71      H        0.42590    0.21840    0.58350    1.000
    C191     C        0.56722    0.21310    0.61052    1.000
    H72      H        0.60390    0.21120    0.59150    1.000
    C192     C        0.51496    0.21620    0.57702    1.000
    O93      O        0.66809    0.19923    0.67509    1.000
    O94      O        0.35274    0.21116    0.66200    1.000
    O95      O        0.39487    0.23305    0.74985    1.000
    O96      O        0.61942    0.21787    0.76109    1.000
    N24      N        0.52268    0.21710    0.51373    1.000
    O97      O        0.23817    0.23817    0.23817    1.000
    O98      O        0.76183    0.76183    0.23817    1.000
    O99      O        0.76183    0.23817    0.76183    1.000
    O100     O        0.23817    0.76183    0.76183    1.000
    O101     O        0.73817    0.73817    0.73817    1.000
    O102     O        0.26183    0.26183    0.73817    1.000
    O103     O        0.73817    0.26183    0.26183    1.000
    O104     O        0.26183    0.73817    0.26183    1.000
