# CIF file generated by openbabel 3.1.0, see https://openbabel.org
data_I
_chemical_name_common 'HOFSUS_clean'
_cell_length_a 8.902
_cell_length_b 11.887
_cell_length_c 14.757
_cell_angle_alpha 90
_cell_angle_beta 90
_cell_angle_gamma 90
_space_group_name_H-M_alt 'P 1'
_space_group_name_Hall 'P 1'
loop_
    _symmetry_equiv_pos_as_xyz
    x,y,z
loop_
    _atom_site_label
    _atom_site_type_symbol
    _atom_site_fract_x
    _atom_site_fract_y
    _atom_site_fract_z
    _atom_site_occupancy
    Zn1      Zn       0.20358    0.60087    0.61256    1.000
    Zn2      Zn       0.29642    0.39913    0.11256    1.000
    Zn3      Zn       0.70358    0.89913    0.38744    1.000
    Zn4      Zn       0.79642    0.10087    0.88744    1.000
    H1       H        0.02420    0.01500    0.15440    1.000
    H2       H        0.52420    0.48500    0.84560    1.000
    H3       H        0.57300    0.26030    0.23010    1.000
    H4       H        0.92700    0.73970    0.73010    1.000
    H5       H        0.63210    0.88410    0.18110    1.000
    H6       H        0.39640    0.63780    0.15130    1.000
    H7       H        0.59810    0.99920    0.06010    1.000
    H8       H        0.90190    0.00080    0.56010    1.000
    H9       H        0.36790    0.38410    0.31890    1.000
    H10      H        0.40190    0.49920    0.43990    1.000
    H11      H        0.86790    0.11590    0.68110    1.000
    H12      H        0.13210    0.61590    0.81890    1.000
    H13      H        0.97580    0.51500    0.34560    1.000
    H14      H        0.47580    0.98500    0.65440    1.000
    H15      H        0.89640    0.86220    0.84870    1.000
    H16      H        0.42700    0.76030    0.26990    1.000
    H17      H        0.60360    0.13780    0.34870    1.000
    H18      H        0.10360    0.36220    0.65130    1.000
    H19      H        0.07300    0.23970    0.76990    1.000
    H20      H        0.09810    0.50080    0.93990    1.000
    C1       C        0.95790    0.01990    0.04303    1.000
    C2       C        0.62020    0.96070    0.19130    1.000
    C3       C        0.89590    0.89050    0.78990    1.000
    C4       C        0.60410    0.10950    0.28990    1.000
    C5       C        0.87730    0.69660    0.42687    1.000
    C6       C        0.41310    0.64530    0.36916    1.000
    C7       C        0.37730    0.80340    0.57313    1.000
    C8       C        0.58690    0.14530    0.13084    1.000
    C9       C        0.62270    0.30340    0.92687    1.000
    C10      C        0.08690    0.35470    0.86916    1.000
    C11      C        0.04210    0.51990    0.45697    1.000
    C12      C        0.10130    0.47060    0.88180    1.000
    C13      C        0.60130    0.02940    0.11820    1.000
    C14      C        0.12020    0.53930    0.80870    1.000
    C15      C        0.58590    0.18390    0.21860    1.000
    C16      C        0.08590    0.31610    0.78140    1.000
    C17      C        0.39590    0.60950    0.21010    1.000
    C18      C        0.54210    0.98010    0.54303    1.000
    C19      C        0.47280    0.87100    0.52307    1.000
    C20      C        0.97280    0.62900    0.47693    1.000
    C21      C        0.91310    0.85470    0.63084    1.000
    C22      C        0.45790    0.48010    0.95697    1.000
    C23      C        0.87980    0.03930    0.69130    1.000
    C24      C        0.42300    0.72370    0.44655    1.000
    C25      C        0.52720    0.37100    0.97693    1.000
    C26      C        0.12270    0.19660    0.07313    1.000
    C27      C        0.07700    0.27630    0.94655    1.000
    C28      C        0.91410    0.81610    0.71860    1.000
    C29      C        0.81510    0.68350    0.33402    1.000
    C30      C        0.57700    0.22370    0.05345    1.000
    C31      C        0.92300    0.77630    0.55345    1.000
    C32      C        0.41410    0.68390    0.28140    1.000
    C33      C        0.18490    0.18350    0.16598    1.000
    C34      C        0.10410    0.39050    0.71010    1.000
    C35      C        0.68490    0.31650    0.83402    1.000
    C36      C        0.37980    0.46070    0.30870    1.000
    C37      C        0.89870    0.97060    0.61820    1.000
    C38      C        0.02720    0.12900    0.02307    1.000
    C39      C        0.31510    0.81650    0.66598    1.000
    C40      C        0.39870    0.52940    0.38180    1.000
    N1       N        0.84350    0.79100    0.47625    1.000
    N2       N        0.00050    0.67980    0.55729    1.000
    N3       N        0.50050    0.82020    0.44271    1.000
    N4       N        0.99950    0.17980    0.94271    1.000
    N5       N        0.37740    0.49790    0.22209    1.000
    N6       N        0.34350    0.70900    0.52375    1.000
    N7       N        0.12260    0.50210    0.72209    1.000
    N8       N        0.87740    0.00210    0.77791    1.000
    N9       N        0.65650    0.20900    0.97625    1.000
    N10      N        0.62260    0.99790    0.27791    1.000
    N11      N        0.15650    0.29100    0.02375    1.000
    N12      N        0.49950    0.32020    0.05729    1.000
    O1       O        0.49220    0.53092    0.88229    1.000
    O2       O        0.24650    0.73624    0.69934    1.000
    O3       O        0.33830    0.90950    0.70582    1.000
    O4       O        0.50780    0.03092    0.61771    1.000
    O5       O        0.66170    0.40950    0.79418    1.000
    O6       O        0.63360    0.01949    0.48807    1.000
    O7       O        0.13360    0.48051    0.51193    1.000
    O8       O        0.00780    0.46908    0.38229    1.000
    O9       O        0.75350    0.23624    0.80066    1.000
    O10      O        0.74650    0.76376    0.30066    1.000
    O11      O        0.16170    0.09050    0.20582    1.000
    O12      O        0.83830    0.59050    0.29418    1.000
    O13      O        0.25350    0.26376    0.19934    1.000
    O14      O        0.99220    0.96908    0.11771    1.000
    O15      O        0.86640    0.98051    0.98807    1.000
    O16      O        0.36640    0.51949    0.01193    1.000
