# CIF file generated by openbabel 3.1.0, see https://openbabel.org
data_I
_chemical_name_common 'image0'
_cell_length_a 20.483
_cell_length_b 21.89
_cell_length_c 6.493
_cell_angle_alpha 90
_cell_angle_beta 90
_cell_angle_gamma 90
_space_group_name_H-M_alt 'P 1'
_space_group_name_Hall 'P 1'
loop_
    _symmetry_equiv_pos_as_xyz
    x,y,z
loop_
    _atom_site_label
    _atom_site_type_symbol
    _atom_site_fract_x
    _atom_site_fract_y
    _atom_site_fract_z
    _atom_site_occupancy
    Ag1      Ag       0.73306    0.31585    0.51590    1.000
    Ag2      Ag       0.50226    0.78320    0.51910    1.000
    Ag3      Ag       0.83975    0.52923    0.01920    1.000
    S1       S        0.55940    0.65930    0.52400    1.000
    O1       O        0.63810    0.37920    0.51500    1.000
    O2       O        0.70240    0.45590    0.53200    1.000
    O3       O        0.51010    0.68370    0.66600    1.000
    O4       O        0.55060    0.68060    0.31100    1.000
    O5       O        0.62650    0.66600    0.59900    1.000
    O6       O        0.51370    0.39290    0.50600    1.000
    H1       H        0.62600    0.35100    0.61000    1.000
    C1       C        0.64780    0.43430    0.51300    1.000
    C2       C        0.58900    0.47650    0.54900    1.000
    C3       C        0.52640    0.45170    0.52900    1.000
    C4       C        0.47070    0.49880    0.53000    1.000
    H2       H        0.42830    0.48370    0.53110    1.000
    C5       C        0.48070    0.55810    0.51300    1.000
    H3       H        0.44550    0.58480    0.50570    1.000
    C6       C        0.54480    0.57870    0.51500    1.000
    C7       C        0.59990    0.53930    0.50800    1.000
    H4       H        0.64230    0.55440    0.50650    1.000
    S2       S        0.64500    0.43650    0.49100    1.000
    O7       O        0.46310    0.67110    0.51900    1.000
    O8       O        0.56630    0.66700    0.47600    1.000
    O9       O        0.64420    0.39300    0.66400    1.000
    O10      O        0.63930    0.40570    0.29000    1.000
    O11      O        0.69890    0.48030    0.49800    1.000
    O12      O        0.40190    0.57550    0.54100    1.000
    H5       H        0.43400    0.66300    0.36000    1.000
    C8       C        0.51470    0.64350    0.52500    1.000
    C9       C        0.51240    0.57350    0.54200    1.000
    C10      C        0.45560    0.54330    0.50400    1.000
    C11      C        0.45920    0.47650    0.50300    1.000
    H6       H        0.42020    0.45490    0.49280    1.000
    C12      C        0.50980    0.44750    0.52200    1.000
    H7       H        0.51020    0.40500    0.51860    1.000
    C13      C        0.57190    0.48050    0.51800    1.000
    C14      C        0.57230    0.54430    0.53700    1.000
    H8       H        0.61130    0.56580    0.54740    1.000
    N1       N        0.79470    0.33760    0.83900    1.000
    N2       N        0.89200    0.32780    0.01200    1.000
    N3       N        0.83520    0.42700    0.01100    1.000
    N4       N        0.78570    0.34040    0.21500    1.000
    C15      C        0.85330    0.30540    0.84100    1.000
    H9       H        0.87650    0.31140    0.71220    1.000
    H10      H        0.84450    0.26210    0.85730    1.000
    C16      C        0.79690    0.40290    0.84400    1.000
    H11      H        0.75280    0.41830    0.85680    1.000
    H12      H        0.81450    0.41760    0.71430    1.000
    C17      C        0.75320    0.32170    0.03200    1.000
    H13      H        0.71110    0.34180    0.02390    1.000
    H14      H        0.74580    0.27790    0.03490    1.000
    C18      C        0.89980    0.39460    0.01600    1.000
    H15      H        0.92780    0.40800    0.90460    1.000
    H16      H        0.92090    0.40550    0.14510    1.000
    C19      C        0.85630    0.31520    0.21000    1.000
    H17      H        0.88060    0.33330    0.32250    1.000
    H18      H        0.85520    0.27140    0.23240    1.000
    C20      C        0.79900    0.41090    0.21100    1.000
    H19      H        0.75800    0.43290    0.21880    1.000
    H20      H        0.82550    0.42250    0.32840    1.000
    N5       N        0.55630    0.20270    0.71500    1.000
    N6       N        0.56110    0.19810    0.33900    1.000
    N7       N        0.65470    0.23560    0.53000    1.000
    N8       N        0.62620    0.12800    0.51000    1.000
    C21      C        0.51920    0.21140    0.51500    1.000
    H21      H        0.50410    0.25330    0.50340    1.000
    H22      H        0.48130    0.18480    0.51190    1.000
    C22      C        0.61360    0.24090    0.70100    1.000
    H23      H        0.63990    0.23180    0.82180    1.000
    H24      H        0.60020    0.28330    0.71260    1.000
    C23      C        0.58620    0.13430    0.69800    1.000
    H25      H        0.55130    0.10430    0.69770    1.000
    H26      H        0.61330    0.12680    0.81850    1.000
    C24      C        0.61510    0.24800    0.33900    1.000
    H27      H        0.59500    0.28800    0.34800    1.000
    H28      H        0.64180    0.24630    0.21570    1.000
    C25      C        0.58280    0.14190    0.33300    1.000
    H29      H        0.54570    0.11440    0.33630    1.000
    H30      H        0.60640    0.13470    0.20570    1.000
    C26      C        0.67890    0.17270    0.52500    1.000
    H31      H        0.70440    0.16510    0.64840    1.000
    H32      H        0.70740    0.16760    0.40720    1.000
    Ag4      Ag       0.26694    0.68415    0.01590    1.000
    Ag5      Ag       0.49774    0.21680    0.01910    1.000
    Ag6      Ag       0.16025    0.47077    0.51920    1.000
    S3       S        0.44060    0.34070    0.02400    1.000
    O13      O        0.36190    0.62080    0.01500    1.000
    O14      O        0.29760    0.54410    0.03200    1.000
    O15      O        0.48990    0.31630    0.16600    1.000
    O16      O        0.44940    0.31940    0.81100    1.000
    O17      O        0.37350    0.33400    0.09900    1.000
    O18      O        0.48630    0.60710    0.00600    1.000
    H33      H        0.37400    0.64900    0.11000    1.000
    C27      C        0.35220    0.56570    0.01300    1.000
    C28      C        0.41100    0.52350    0.04900    1.000
    C29      C        0.47360    0.54830    0.02900    1.000
    C30      C        0.52930    0.50120    0.03000    1.000
    H34      H        0.57170    0.51630    0.03110    1.000
    C31      C        0.51930    0.44190    0.01300    1.000
    H35      H        0.55450    0.41520    0.00570    1.000
    C32      C        0.45520    0.42130    0.01500    1.000
    C33      C        0.40010    0.46070    0.00800    1.000
    H36      H        0.35770    0.44560    0.00650    1.000
    S4       S        0.35500    0.56350    0.99100    1.000
    O19      O        0.53690    0.32890    0.01900    1.000
    O20      O        0.43370    0.33300    0.97600    1.000
    O21      O        0.35580    0.60700    0.16400    1.000
    O22      O        0.36070    0.59430    0.79000    1.000
    O23      O        0.30110    0.51970    0.99800    1.000
    O24      O        0.59810    0.42450    0.04100    1.000
    H37      H        0.56600    0.33700    0.86000    1.000
    C34      C        0.48530    0.35650    0.02500    1.000
    C35      C        0.48760    0.42650    0.04200    1.000
    C36      C        0.54440    0.45670    0.00400    1.000
    C37      C        0.54080    0.52350    0.00300    1.000
    H38      H        0.57980    0.54510    0.99280    1.000
    C38      C        0.49020    0.55250    0.02200    1.000
    H39      H        0.48980    0.59500    0.01860    1.000
    C39      C        0.42810    0.51950    0.01800    1.000
    C40      C        0.42770    0.45570    0.03700    1.000
    H40      H        0.38870    0.43420    0.04740    1.000
    N9       N        0.20530    0.66240    0.33900    1.000
    N10      N        0.10800    0.67220    0.51200    1.000
    N11      N        0.16480    0.57300    0.51100    1.000
    N12      N        0.21430    0.65960    0.71500    1.000
    C41      C        0.14670    0.69460    0.34100    1.000
    H41      H        0.12350    0.68860    0.21220    1.000
    H42      H        0.15550    0.73790    0.35730    1.000
    C42      C        0.20310    0.59710    0.34400    1.000
    H43      H        0.24720    0.58170    0.35680    1.000
    H44      H        0.18550    0.58240    0.21430    1.000
    C43      C        0.24680    0.67830    0.53200    1.000
    H45      H        0.28890    0.65820    0.52390    1.000
    H46      H        0.25420    0.72210    0.53490    1.000
    C44      C        0.10020    0.60540    0.51600    1.000
    H47      H        0.07220    0.59200    0.40460    1.000
    H48      H        0.07910    0.59450    0.64510    1.000
    C45      C        0.14370    0.68480    0.71000    1.000
    H49      H        0.11940    0.66670    0.82250    1.000
    H50      H        0.14480    0.72860    0.73240    1.000
    C46      C        0.20100    0.58910    0.71100    1.000
    H51      H        0.24200    0.56710    0.71880    1.000
    H52      H        0.17450    0.57750    0.82840    1.000
    N13      N        0.44370    0.79730    0.21500    1.000
    N14      N        0.43890    0.80190    0.83900    1.000
    N15      N        0.34530    0.76440    0.03000    1.000
    N16      N        0.37380    0.87200    0.01000    1.000
    C47      C        0.48080    0.78860    0.01500    1.000
    H53      H        0.49590    0.74670    0.00340    1.000
    H54      H        0.51870    0.81520    0.01190    1.000
    C48      C        0.38640    0.75910    0.20100    1.000
    H55      H        0.36010    0.76820    0.32180    1.000
    H56      H        0.39980    0.71670    0.21260    1.000
    C49      C        0.41380    0.86570    0.19800    1.000
    H57      H        0.44870    0.89570    0.19770    1.000
    H58      H        0.38670    0.87320    0.31850    1.000
    C50      C        0.38490    0.75200    0.83900    1.000
    H59      H        0.40500    0.71200    0.84800    1.000
    H60      H        0.35820    0.75370    0.71570    1.000
    C51      C        0.41720    0.85810    0.83300    1.000
    H61      H        0.45430    0.88560    0.83630    1.000
    H62      H        0.39360    0.86530    0.70570    1.000
    C52      C        0.32110    0.82730    0.02500    1.000
    H63      H        0.29560    0.83490    0.14840    1.000
    H64      H        0.29260    0.83240    0.90720    1.000
    Ag7      Ag       0.23306    0.18415    0.51590    1.000
    Ag8      Ag       0.00226    0.71680    0.51910    1.000
    Ag9      Ag       0.33975    0.97077    0.01920    1.000
    S5       S        0.05940    0.84070    0.52400    1.000
    O25      O        0.13810    0.12080    0.51500    1.000
    O26      O        0.20240    0.04410    0.53200    1.000
    O27      O        0.01010    0.81630    0.66600    1.000
    O28      O        0.05060    0.81940    0.31100    1.000
    O29      O        0.12650    0.83400    0.59900    1.000
    O30      O        0.01370    0.10710    0.50600    1.000
    H65      H        0.12600    0.14900    0.61000    1.000
    C53      C        0.14780    0.06570    0.51300    1.000
    C54      C        0.08900    0.02350    0.54900    1.000
    C55      C        0.02640    0.04830    0.52900    1.000
    C56      C        0.97070    0.00120    0.53000    1.000
    H66      H        0.92830    0.01630    0.53110    1.000
    C57      C        0.98070    0.94190    0.51300    1.000
    H67      H        0.94550    0.91520    0.50570    1.000
    C58      C        0.04480    0.92130    0.51500    1.000
    C59      C        0.09990    0.96070    0.50800    1.000
    H68      H        0.14230    0.94560    0.50650    1.000
    S6       S        0.14500    0.06350    0.49100    1.000
    O31      O        0.96310    0.82890    0.51900    1.000
    O32      O        0.06630    0.83300    0.47600    1.000
    O33      O        0.14420    0.10700    0.66400    1.000
    O34      O        0.13930    0.09430    0.29000    1.000
    O35      O        0.19890    0.01970    0.49800    1.000
    O36      O        0.90190    0.92450    0.54100    1.000
    H69      H        0.93400    0.83700    0.36000    1.000
    C60      C        0.01470    0.85650    0.52500    1.000
    C61      C        0.01240    0.92650    0.54200    1.000
    C62      C        0.95560    0.95670    0.50400    1.000
    C63      C        0.95920    0.02350    0.50300    1.000
    H70      H        0.92020    0.04510    0.49280    1.000
    C64      C        0.00980    0.05250    0.52200    1.000
    H71      H        0.01020    0.09500    0.51860    1.000
    C65      C        0.07190    0.01950    0.51800    1.000
    C66      C        0.07230    0.95570    0.53700    1.000
    H72      H        0.11130    0.93420    0.54740    1.000
    N17      N        0.29470    0.16240    0.83900    1.000
    N18      N        0.39200    0.17220    0.01200    1.000
    N19      N        0.33520    0.07300    0.01100    1.000
    N20      N        0.28570    0.15960    0.21500    1.000
    C67      C        0.35330    0.19460    0.84100    1.000
    H73      H        0.37650    0.18860    0.71220    1.000
    H74      H        0.34450    0.23790    0.85730    1.000
    C68      C        0.29690    0.09710    0.84400    1.000
    H75      H        0.25280    0.08170    0.85680    1.000
    H76      H        0.31450    0.08240    0.71430    1.000
    C69      C        0.25320    0.17830    0.03200    1.000
    H77      H        0.21110    0.15820    0.02390    1.000
    H78      H        0.24580    0.22210    0.03490    1.000
    C70      C        0.39980    0.10540    0.01600    1.000
    H79      H        0.42780    0.09200    0.90460    1.000
    H80      H        0.42090    0.09450    0.14510    1.000
    C71      C        0.35630    0.18480    0.21000    1.000
    H81      H        0.38060    0.16670    0.32250    1.000
    H82      H        0.35520    0.22860    0.23240    1.000
    C72      C        0.29900    0.08910    0.21100    1.000
    H83      H        0.25800    0.06710    0.21880    1.000
    H84      H        0.32550    0.07750    0.32840    1.000
    N21      N        0.05630    0.29730    0.71500    1.000
    N22      N        0.06110    0.30190    0.33900    1.000
    N23      N        0.15470    0.26440    0.53000    1.000
    N24      N        0.12620    0.37200    0.51000    1.000
    C73      C        0.01920    0.28860    0.51500    1.000
    H85      H        0.00410    0.24670    0.50340    1.000
    H86      H        0.98130    0.31520    0.51190    1.000
    C74      C        0.11360    0.25910    0.70100    1.000
    H87      H        0.13990    0.26820    0.82180    1.000
    H88      H        0.10020    0.21670    0.71260    1.000
    C75      C        0.08620    0.36570    0.69800    1.000
    H89      H        0.05130    0.39570    0.69770    1.000
    H90      H        0.11330    0.37320    0.81850    1.000
    C76      C        0.11510    0.25200    0.33900    1.000
    H91      H        0.09500    0.21200    0.34800    1.000
    H92      H        0.14180    0.25370    0.21570    1.000
    C77      C        0.08280    0.35810    0.33300    1.000
    H93      H        0.04570    0.38560    0.33630    1.000
    H94      H        0.10640    0.36530    0.20570    1.000
    C78      C        0.17890    0.32730    0.52500    1.000
    H95      H        0.20440    0.33490    0.64840    1.000
    H96      H        0.20740    0.33240    0.40720    1.000
    Ag10     Ag       0.76694    0.81585    0.01590    1.000
    Ag11     Ag       0.99774    0.28320    0.01910    1.000
    Ag12     Ag       0.66025    0.02923    0.51920    1.000
    S7       S        0.94060    0.15930    0.02400    1.000
    O37      O        0.86190    0.87920    0.01500    1.000
    O38      O        0.79760    0.95590    0.03200    1.000
    O39      O        0.98990    0.18370    0.16600    1.000
    O40      O        0.94940    0.18060    0.81100    1.000
    O41      O        0.87350    0.16600    0.09900    1.000
    O42      O        0.98630    0.89290    0.00600    1.000
    H97      H        0.87400    0.85100    0.11000    1.000
    C79      C        0.85220    0.93430    0.01300    1.000
    C80      C        0.91100    0.97650    0.04900    1.000
    C81      C        0.97360    0.95170    0.02900    1.000
    C82      C        0.02930    0.99880    0.03000    1.000
    H98      H        0.07170    0.98370    0.03110    1.000
    C83      C        0.01930    0.05810    0.01300    1.000
    H99      H        0.05450    0.08480    0.00570    1.000
    C84      C        0.95520    0.07870    0.01500    1.000
    C85      C        0.90010    0.03930    0.00800    1.000
    H100     H        0.85770    0.05440    0.00650    1.000
    S8       S        0.85500    0.93650    0.99100    1.000
    O43      O        0.03690    0.17110    0.01900    1.000
    O44      O        0.93370    0.16700    0.97600    1.000
    O45      O        0.85580    0.89300    0.16400    1.000
    O46      O        0.86070    0.90570    0.79000    1.000
    O47      O        0.80110    0.98030    0.99800    1.000
    O48      O        0.09810    0.07550    0.04100    1.000
    H101     H        0.06600    0.16300    0.86000    1.000
    C86      C        0.98530    0.14350    0.02500    1.000
    C87      C        0.98760    0.07350    0.04200    1.000
    C88      C        0.04440    0.04330    0.00400    1.000
    C89      C        0.04080    0.97650    0.00300    1.000
    H102     H        0.07980    0.95490    0.99280    1.000
    C90      C        0.99020    0.94750    0.02200    1.000
    H103     H        0.98980    0.90500    0.01860    1.000
    C91      C        0.92810    0.98050    0.01800    1.000
    C92      C        0.92770    0.04430    0.03700    1.000
    H104     H        0.88870    0.06580    0.04740    1.000
    N25      N        0.70530    0.83760    0.33900    1.000
    N26      N        0.60800    0.82780    0.51200    1.000
    N27      N        0.66480    0.92700    0.51100    1.000
    N28      N        0.71430    0.84040    0.71500    1.000
    C93      C        0.64670    0.80540    0.34100    1.000
    H105     H        0.62350    0.81140    0.21220    1.000
    H106     H        0.65550    0.76210    0.35730    1.000
    C94      C        0.70310    0.90290    0.34400    1.000
    H107     H        0.74720    0.91830    0.35680    1.000
    H108     H        0.68550    0.91760    0.21430    1.000
    C95      C        0.74680    0.82170    0.53200    1.000
    H109     H        0.78890    0.84180    0.52390    1.000
    H110     H        0.75420    0.77790    0.53490    1.000
    C96      C        0.60020    0.89460    0.51600    1.000
    H111     H        0.57220    0.90800    0.40460    1.000
    H112     H        0.57910    0.90550    0.64510    1.000
    C97      C        0.64370    0.81520    0.71000    1.000
    H113     H        0.61940    0.83330    0.82250    1.000
    H114     H        0.64480    0.77140    0.73240    1.000
    C98      C        0.70100    0.91090    0.71100    1.000
    H115     H        0.74200    0.93290    0.71880    1.000
    H116     H        0.67450    0.92250    0.82840    1.000
    N29      N        0.94370    0.70270    0.21500    1.000
    N30      N        0.93890    0.69810    0.83900    1.000
    N31      N        0.84530    0.73560    0.03000    1.000
    N32      N        0.87380    0.62800    0.01000    1.000
    C99      C        0.98080    0.71140    0.01500    1.000
    H117     H        0.99590    0.75330    0.00340    1.000
    H118     H        0.01870    0.68480    0.01190    1.000
    C100     C        0.88640    0.74090    0.20100    1.000
    H119     H        0.86010    0.73180    0.32180    1.000
    H120     H        0.89980    0.78330    0.21260    1.000
    C101     C        0.91380    0.63430    0.19800    1.000
    H121     H        0.94870    0.60430    0.19770    1.000
    H122     H        0.88670    0.62680    0.31850    1.000
    C102     C        0.88490    0.74800    0.83900    1.000
    H123     H        0.90500    0.78800    0.84800    1.000
    H124     H        0.85820    0.74630    0.71570    1.000
    C103     C        0.91720    0.64190    0.83300    1.000
    H125     H        0.95430    0.61440    0.83630    1.000
    H126     H        0.89360    0.63470    0.70570    1.000
    C104     C        0.82110    0.67270    0.02500    1.000
    H127     H        0.79560    0.66510    0.14840    1.000
    H128     H        0.79260    0.66760    0.90720    1.000
