# CIF file generated by openbabel 3.1.0, see https://openbabel.org
data_I
_chemical_name_common 'WARJAC_clean'
_cell_length_a 11.9245
_cell_length_b 11.9245
_cell_length_c 16.302
_cell_angle_alpha 90
_cell_angle_beta 90
_cell_angle_gamma 120
_space_group_name_H-M_alt 'P 1'
_space_group_name_Hall 'P 1'
loop_
    _symmetry_equiv_pos_as_xyz
    x,y,z
loop_
    _atom_site_label
    _atom_site_type_symbol
    _atom_site_fract_x
    _atom_site_fract_y
    _atom_site_fract_z
    _atom_site_occupancy
    Ni1      Ni       0.45662    0.50488    0.85893    1.000
    Ni2      Ni       0.04826    0.54338    0.52560    1.000
    Ni3      Ni       0.49512    0.95174    0.19226    1.000
    Ni4      Ni       0.95174    0.49512    0.14107    1.000
    Ni5      Ni       0.50488    0.45662    0.47440    1.000
    Ni6      Ni       0.54338    0.04826    0.80774    1.000
    Ni7      Ni       0.37325    0.00000    0.00000    1.000
    Ni8      Ni       0.62675    0.62675    0.66667    1.000
    Ni9      Ni       0.00000    0.37325    0.33333    1.000
    C1       C        0.48610    0.28640    0.82500    1.000
    C2       C        0.39350    0.23230    0.93900    1.000
    C3       C        0.53840    0.36490    0.74810    1.000
    C4       C        0.31990    0.21070    0.01720    1.000
    C5       C        0.80030    0.51390    0.49167    1.000
    C6       C        0.83880    0.60650    0.60567    1.000
    C7       C        0.82650    0.46160    0.41477    1.000
    C8       C        0.89080    0.68010    0.68387    1.000
    C9       C        0.71360    0.19970    0.15833    1.000
    C10      C        0.76770    0.16120    0.27233    1.000
    C11      C        0.63510    0.17350    0.08143    1.000
    C12      C        0.78930    0.10920    0.35053    1.000
    C13      C        0.19970    0.71360    0.17500    1.000
    C14      C        0.16120    0.76770    0.06100    1.000
    C15      C        0.17350    0.63510    0.25190    1.000
    C16      C        0.10920    0.78930    0.98280    1.000
    C17      C        0.28640    0.48610    0.50833    1.000
    C18      C        0.23230    0.39350    0.39433    1.000
    C19      C        0.36490    0.53840    0.58523    1.000
    C20      C        0.21070    0.31990    0.31613    1.000
    C21      C        0.51390    0.80030    0.84167    1.000
    C22      C        0.60650    0.83880    0.72767    1.000
    C23      C        0.46160    0.82650    0.91857    1.000
    C24      C        0.68010    0.89080    0.64947    1.000
    N1       N        0.42550    0.14500    0.92014    1.000
    N2       N        0.42770    0.32290    0.88170    1.000
    N3       N        0.48730    0.17820    0.84630    1.000
    N4       N        0.71950    0.57450    0.58681    1.000
    N5       N        0.89520    0.57230    0.54837    1.000
    N6       N        0.69090    0.51270    0.51297    1.000
    N7       N        0.85500    0.28050    0.25347    1.000
    N8       N        0.67710    0.10480    0.21503    1.000
    N9       N        0.82180    0.30910    0.17963    1.000
    N10      N        0.28050    0.85500    0.07986    1.000
    N11      N        0.10480    0.67710    0.11830    1.000
    N12      N        0.30910    0.82180    0.15370    1.000
    N13      N        0.14500    0.42550    0.41319    1.000
    N14      N        0.32290    0.42770    0.45163    1.000
    N15      N        0.17820    0.48730    0.48703    1.000
    N16      N        0.57450    0.71950    0.74653    1.000
    N17      N        0.57230    0.89520    0.78497    1.000
    N18      N        0.51270    0.69090    0.82037    1.000
    O1       O        0.54320    0.47510    0.75137    1.000
    O2       O        0.30160    0.11100    0.05657    1.000
    O3       O        0.56970    0.32290    0.68900    1.000
    O4       O        0.28080    0.28530    0.03880    1.000
    O5       O        0.93190    0.45680    0.41804    1.000
    O6       O        0.80940    0.69840    0.72324    1.000
    O7       O        0.75320    0.43030    0.35567    1.000
    O8       O        0.00450    0.71920    0.70547    1.000
    O9       O        0.52490    0.06810    0.08470    1.000
    O10      O        0.88900    0.19060    0.38990    1.000
    O11      O        0.67710    0.24680    0.02233    1.000
    O12      O        0.71470    0.99550    0.37213    1.000
    O13      O        0.06810    0.52490    0.24863    1.000
    O14      O        0.19060    0.88900    0.94343    1.000
    O15      O        0.24680    0.67710    0.31100    1.000
    O16      O        0.99550    0.71470    0.96120    1.000
    O17      O        0.47510    0.54320    0.58196    1.000
    O18      O        0.11100    0.30160    0.27676    1.000
    O19      O        0.32290    0.56970    0.64433    1.000
    O20      O        0.28530    0.28080    0.29453    1.000
    O21      O        0.45680    0.93190    0.91530    1.000
    O22      O        0.69840    0.80940    0.61010    1.000
    O23      O        0.43030    0.75320    0.97767    1.000
    O24      O        0.71920    0.00450    0.62787    1.000
