# CIF file generated by openbabel 3.1.0, see https://openbabel.org
data_I
_chemical_name_common 'image0'
_cell_length_a 33.493
_cell_length_b 53.707
_cell_length_c 22.036
_cell_angle_alpha 90
_cell_angle_beta 90
_cell_angle_gamma 90
_space_group_name_H-M_alt 'P 1'
_space_group_name_Hall 'P 1'
loop_
    _symmetry_equiv_pos_as_xyz
    x,y,z
loop_
    _atom_site_label
    _atom_site_type_symbol
    _atom_site_fract_x
    _atom_site_fract_y
    _atom_site_fract_z
    _atom_site_occupancy
    In1      In       0.72092    0.72132    0.56868    1.000
    In2      In       0.70772    0.55447    0.71191    1.000
    In3      In       0.67285    0.88054    0.29403    1.000
    O1       O        0.90160    0.69254    0.90340    1.000
    O2       O        0.90021    0.68096    0.99770    1.000
    O3       O        0.73440    0.69020    0.62350    1.000
    O4       O        0.74230    0.71450    0.70200    1.000
    O5       O        0.71380    0.59831    0.67030    1.000
    O6       O        0.73730    0.58495    0.75420    1.000
    O7       O        0.76673    0.62394    0.24740    1.000
    O8       O        0.82105    0.62317    0.19350    1.000
    O9       O        0.63889    0.63848    0.03120    1.000
    O10      O        0.63470    0.62758    0.12740    1.000
    O11      O        0.48320    0.70512    0.37400    1.000
    O12      O        0.52190    0.71333    0.45060    1.000
    O13      O        0.70060    0.74836    0.50260    1.000
    O14      O        0.72890    0.78506    0.50970    1.000
    O15      O        0.69302    0.85069    0.35980    1.000
    O16      O        0.65380    0.84038    0.28460    1.000
    O17      O        0.55940    0.76463    0.98200    1.000
    O18      O        0.53807    0.78800    0.05680    1.000
    O19      O        0.56920    0.67294    0.02030    1.000
    O20      O        0.55770    0.65830    0.11090    1.000
    C1       C        0.84270    0.67291    0.93840    1.000
    C2       C        0.82650    0.67054    0.88050    1.000
    H1       H        0.84010    0.67700    0.84730    1.000
    C3       C        0.79020    0.65860    0.87220    1.000
    C4       C        0.76980    0.64960    0.92340    1.000
    H2       H        0.74550    0.64160    0.91790    1.000
    C5       C        0.78460    0.65240    0.98220    1.000
    C6       C        0.82110    0.66414    0.98920    1.000
    H3       H        0.83150    0.66630    0.02800    1.000
    C7       C        0.77360    0.65445    0.81020    1.000
    C8       C        0.76970    0.67490    0.77060    1.000
    H4       H        0.77900    0.69050    0.78200    1.000
    C9       C        0.75220    0.67151    0.71520    1.000
    C10      C        0.74060    0.64829    0.69550    1.000
    H5       H        0.73060    0.64610    0.65650    1.000
    C11      C        0.74440    0.62790    0.73530    1.000
    C12      C        0.76020    0.63140    0.79290    1.000
    H6       H        0.76170    0.61810    0.81980    1.000
    C13      C        0.76210    0.64417    0.03660    1.000
    C14      C        0.78130    0.63806    0.08810    1.000
    H7       H        0.80910    0.63860    0.08900    1.000
    C15      C        0.76080    0.63107    0.13960    1.000
    C16      C        0.71930    0.63028    0.13950    1.000
    H8       H        0.70520    0.62610    0.17440    1.000
    C17      C        0.69930    0.63596    0.08580    1.000
    C18      C        0.72030    0.64287    0.03520    1.000
    H9       H        0.70670    0.64670    0.99960    1.000
    C19      C        0.88400    0.68276    0.94670    1.000
    C20      C        0.74120    0.69380    0.67890    1.000
    C21      C        0.73100    0.60237    0.71750    1.000
    C22      C        0.78390    0.62579    0.19710    1.000
    C23      C        0.65460    0.63346    0.08350    1.000
    C24      C        0.54390    0.72628    0.35210    1.000
    C25      C        0.57390    0.74115    0.37380    1.000
    H10      H        0.57770    0.74260    0.41540    1.000
    C26      C        0.59860    0.75399    0.33430    1.000
    C27      C        0.59300    0.75124    0.27270    1.000
    H11      H        0.60920    0.76000    0.24590    1.000
    C28      C        0.56350    0.73570    0.25000    1.000
    C29      C        0.53860    0.72288    0.28950    1.000
    H12      H        0.51890    0.71230    0.27480    1.000
    C30      C        0.63060    0.77078    0.36000    1.000
    C31      C        0.65270    0.76348    0.40940    1.000
    H13      H        0.64810    0.74790    0.42650    1.000
    C32      C        0.68150    0.77852    0.43430    1.000
    C33      C        0.68810    0.80203    0.40900    1.000
    H14      H        0.70720    0.81260    0.42540    1.000
    C34      C        0.66600    0.80932    0.35950    1.000
    C35      C        0.63800    0.79355    0.33460    1.000
    H15      H        0.62390    0.79850    0.30020    1.000
    C36      C        0.56010    0.73071    0.18310    1.000
    C37      C        0.55700    0.75074    0.14170    1.000
    H16      H        0.55640    0.76700    0.15590    1.000
    C38      C        0.55490    0.74615    0.08080    1.000
    C39      C        0.55710    0.72241    0.05910    1.000
    H17      H        0.55740    0.71960    0.01750    1.000
    C40      C        0.55890    0.70216    0.09900    1.000
    C41      C        0.55960    0.70677    0.16110    1.000
    H18      H        0.55980    0.69350    0.18810    1.000
    C42      C        0.51510    0.71422    0.39530    1.000
    C43      C        0.70490    0.76988    0.48670    1.000
    C44      C        0.67130    0.83481    0.33280    1.000
    C45      C        0.55010    0.76748    0.03830    1.000
    C46      C        0.56210    0.67670    0.07540    1.000
    O21      O        0.77180    0.71170    0.68900    1.000
    C47      C        0.75590    0.69200    0.67190    1.000
    In4      In       0.72092    0.22132    0.06868    1.000
    In5      In       0.70772    0.05447    0.21191    1.000
    In6      In       0.67285    0.38054    0.79403    1.000
    O22      O        0.90160    0.19254    0.40340    1.000
    O23      O        0.90021    0.18096    0.49770    1.000
    O24      O        0.73440    0.19020    0.12350    1.000
    O25      O        0.74230    0.21450    0.20200    1.000
    O26      O        0.71380    0.09831    0.17030    1.000
    O27      O        0.73730    0.08495    0.25420    1.000
    O28      O        0.76673    0.12394    0.74740    1.000
    O29      O        0.82105    0.12317    0.69350    1.000
    O30      O        0.63889    0.13848    0.53120    1.000
    O31      O        0.63470    0.12758    0.62740    1.000
    O32      O        0.48320    0.20512    0.87400    1.000
    O33      O        0.52190    0.21333    0.95060    1.000
    O34      O        0.70060    0.24836    0.00260    1.000
    O35      O        0.72890    0.28506    0.00970    1.000
    O36      O        0.69302    0.35069    0.85980    1.000
    O37      O        0.65380    0.34038    0.78460    1.000
    O38      O        0.55940    0.26463    0.48200    1.000
    O39      O        0.53807    0.28800    0.55680    1.000
    O40      O        0.56920    0.17294    0.52030    1.000
    O41      O        0.55770    0.15830    0.61090    1.000
    C48      C        0.84270    0.17291    0.43840    1.000
    C49      C        0.82650    0.17054    0.38050    1.000
    H19      H        0.84010    0.17700    0.34730    1.000
    C50      C        0.79020    0.15860    0.37220    1.000
    C51      C        0.76980    0.14960    0.42340    1.000
    H20      H        0.74550    0.14160    0.41790    1.000
    C52      C        0.78460    0.15240    0.48220    1.000
    C53      C        0.82110    0.16414    0.48920    1.000
    H21      H        0.83150    0.16630    0.52800    1.000
    C54      C        0.77360    0.15445    0.31020    1.000
    C55      C        0.76970    0.17490    0.27060    1.000
    H22      H        0.77900    0.19050    0.28200    1.000
    C56      C        0.75220    0.17151    0.21520    1.000
    C57      C        0.74060    0.14829    0.19550    1.000
    H23      H        0.73060    0.14610    0.15650    1.000
    C58      C        0.74440    0.12790    0.23530    1.000
    C59      C        0.76020    0.13140    0.29290    1.000
    H24      H        0.76170    0.11810    0.31980    1.000
    C60      C        0.76210    0.14417    0.53660    1.000
    C61      C        0.78130    0.13806    0.58810    1.000
    H25      H        0.80910    0.13860    0.58900    1.000
    C62      C        0.76080    0.13107    0.63960    1.000
    C63      C        0.71930    0.13028    0.63950    1.000
    H26      H        0.70520    0.12610    0.67440    1.000
    C64      C        0.69930    0.13596    0.58580    1.000
    C65      C        0.72030    0.14287    0.53520    1.000
    H27      H        0.70670    0.14670    0.49960    1.000
    C66      C        0.88400    0.18276    0.44670    1.000
    C67      C        0.74120    0.19380    0.17890    1.000
    C68      C        0.73100    0.10237    0.21750    1.000
    C69      C        0.78390    0.12579    0.69710    1.000
    C70      C        0.65460    0.13346    0.58350    1.000
    C71      C        0.54390    0.22628    0.85210    1.000
    C72      C        0.57390    0.24115    0.87380    1.000
    H28      H        0.57770    0.24260    0.91540    1.000
    C73      C        0.59860    0.25399    0.83430    1.000
    C74      C        0.59300    0.25124    0.77270    1.000
    H29      H        0.60920    0.26000    0.74590    1.000
    C75      C        0.56350    0.23570    0.75000    1.000
    C76      C        0.53860    0.22288    0.78950    1.000
    H30      H        0.51890    0.21230    0.77480    1.000
    C77      C        0.63060    0.27078    0.86000    1.000
    C78      C        0.65270    0.26348    0.90940    1.000
    H31      H        0.64810    0.24790    0.92650    1.000
    C79      C        0.68150    0.27852    0.93430    1.000
    C80      C        0.68810    0.30203    0.90900    1.000
    H32      H        0.70720    0.31260    0.92540    1.000
    C81      C        0.66600    0.30932    0.85950    1.000
    C82      C        0.63800    0.29355    0.83460    1.000
    H33      H        0.62390    0.29850    0.80020    1.000
    C83      C        0.56010    0.23071    0.68310    1.000
    C84      C        0.55700    0.25074    0.64170    1.000
    H34      H        0.55640    0.26700    0.65590    1.000
    C85      C        0.55490    0.24615    0.58080    1.000
    C86      C        0.55710    0.22241    0.55910    1.000
    H35      H        0.55740    0.21960    0.51750    1.000
    C87      C        0.55890    0.20216    0.59900    1.000
    C88      C        0.55960    0.20677    0.66110    1.000
    H36      H        0.55980    0.19350    0.68810    1.000
    C89      C        0.51510    0.21422    0.89530    1.000
    C90      C        0.70490    0.26988    0.98670    1.000
    C91      C        0.67130    0.33481    0.83280    1.000
    C92      C        0.55010    0.26748    0.53830    1.000
    C93      C        0.56210    0.17670    0.57540    1.000
    O42      O        0.77180    0.21170    0.18900    1.000
    C94      C        0.75590    0.19200    0.17190    1.000
    In7      In       0.22092    0.72132    0.06868    1.000
    In8      In       0.20772    0.55447    0.21191    1.000
    In9      In       0.17285    0.88054    0.79403    1.000
    O43      O        0.40160    0.69254    0.40340    1.000
    O44      O        0.40021    0.68096    0.49770    1.000
    O45      O        0.23440    0.69020    0.12350    1.000
    O46      O        0.24230    0.71450    0.20200    1.000
    O47      O        0.21380    0.59831    0.17030    1.000
    O48      O        0.23730    0.58495    0.25420    1.000
    O49      O        0.26673    0.62394    0.74740    1.000
    O50      O        0.32105    0.62317    0.69350    1.000
    O51      O        0.13889    0.63848    0.53120    1.000
    O52      O        0.13470    0.62758    0.62740    1.000
    O53      O        0.98320    0.70512    0.87400    1.000
    O54      O        0.02190    0.71333    0.95060    1.000
    O55      O        0.20060    0.74836    0.00260    1.000
    O56      O        0.22890    0.78506    0.00970    1.000
    O57      O        0.19302    0.85069    0.85980    1.000
    O58      O        0.15380    0.84038    0.78460    1.000
    O59      O        0.05940    0.76463    0.48200    1.000
    O60      O        0.03807    0.78800    0.55680    1.000
    O61      O        0.06920    0.67294    0.52030    1.000
    O62      O        0.05770    0.65830    0.61090    1.000
    C95      C        0.34270    0.67291    0.43840    1.000
    C96      C        0.32650    0.67054    0.38050    1.000
    H37      H        0.34010    0.67700    0.34730    1.000
    C97      C        0.29020    0.65860    0.37220    1.000
    C98      C        0.26980    0.64960    0.42340    1.000
    H38      H        0.24550    0.64160    0.41790    1.000
    C99      C        0.28460    0.65240    0.48220    1.000
    C100     C        0.32110    0.66414    0.48920    1.000
    H39      H        0.33150    0.66630    0.52800    1.000
    C101     C        0.27360    0.65445    0.31020    1.000
    C102     C        0.26970    0.67490    0.27060    1.000
    H40      H        0.27900    0.69050    0.28200    1.000
    C103     C        0.25220    0.67151    0.21520    1.000
    C104     C        0.24060    0.64829    0.19550    1.000
    H41      H        0.23060    0.64610    0.15650    1.000
    C105     C        0.24440    0.62790    0.23530    1.000
    C106     C        0.26020    0.63140    0.29290    1.000
    H42      H        0.26170    0.61810    0.31980    1.000
    C107     C        0.26210    0.64417    0.53660    1.000
    C108     C        0.28130    0.63806    0.58810    1.000
    H43      H        0.30910    0.63860    0.58900    1.000
    C109     C        0.26080    0.63107    0.63960    1.000
    C110     C        0.21930    0.63028    0.63950    1.000
    H44      H        0.20520    0.62610    0.67440    1.000
    C111     C        0.19930    0.63596    0.58580    1.000
    C112     C        0.22030    0.64287    0.53520    1.000
    H45      H        0.20670    0.64670    0.49960    1.000
    C113     C        0.38400    0.68276    0.44670    1.000
    C114     C        0.24120    0.69380    0.17890    1.000
    C115     C        0.23100    0.60237    0.21750    1.000
    C116     C        0.28390    0.62579    0.69710    1.000
    C117     C        0.15460    0.63346    0.58350    1.000
    C118     C        0.04390    0.72628    0.85210    1.000
    C119     C        0.07390    0.74115    0.87380    1.000
    H46      H        0.07770    0.74260    0.91540    1.000
    C120     C        0.09860    0.75399    0.83430    1.000
    C121     C        0.09300    0.75124    0.77270    1.000
    H47      H        0.10920    0.76000    0.74590    1.000
    C122     C        0.06350    0.73570    0.75000    1.000
    C123     C        0.03860    0.72288    0.78950    1.000
    H48      H        0.01890    0.71230    0.77480    1.000
    C124     C        0.13060    0.77078    0.86000    1.000
    C125     C        0.15270    0.76348    0.90940    1.000
    H49      H        0.14810    0.74790    0.92650    1.000
    C126     C        0.18150    0.77852    0.93430    1.000
    C127     C        0.18810    0.80203    0.90900    1.000
    H50      H        0.20720    0.81260    0.92540    1.000
    C128     C        0.16600    0.80932    0.85950    1.000
    C129     C        0.13800    0.79355    0.83460    1.000
    H51      H        0.12390    0.79850    0.80020    1.000
    C130     C        0.06010    0.73071    0.68310    1.000
    C131     C        0.05700    0.75074    0.64170    1.000
    H52      H        0.05640    0.76700    0.65590    1.000
    C132     C        0.05490    0.74615    0.58080    1.000
    C133     C        0.05710    0.72241    0.55910    1.000
    H53      H        0.05740    0.71960    0.51750    1.000
    C134     C        0.05890    0.70216    0.59900    1.000
    C135     C        0.05960    0.70677    0.66110    1.000
    H54      H        0.05980    0.69350    0.68810    1.000
    C136     C        0.01510    0.71422    0.89530    1.000
    C137     C        0.20490    0.76988    0.98670    1.000
    C138     C        0.17130    0.83481    0.83280    1.000
    C139     C        0.05010    0.76748    0.53830    1.000
    C140     C        0.06210    0.67670    0.57540    1.000
    O63      O        0.27180    0.71170    0.18900    1.000
    C141     C        0.25590    0.69200    0.17190    1.000
    In10     In       0.22092    0.22132    0.56868    1.000
    In11     In       0.20772    0.05447    0.71191    1.000
    In12     In       0.17285    0.38054    0.29403    1.000
    O64      O        0.40160    0.19254    0.90340    1.000
    O65      O        0.40021    0.18096    0.99770    1.000
    O66      O        0.23440    0.19020    0.62350    1.000
    O67      O        0.24230    0.21450    0.70200    1.000
    O68      O        0.21380    0.09831    0.67030    1.000
    O69      O        0.23730    0.08495    0.75420    1.000
    O70      O        0.26673    0.12394    0.24740    1.000
    O71      O        0.32105    0.12317    0.19350    1.000
    O72      O        0.13889    0.13848    0.03120    1.000
    O73      O        0.13470    0.12758    0.12740    1.000
    O74      O        0.98320    0.20512    0.37400    1.000
    O75      O        0.02190    0.21333    0.45060    1.000
    O76      O        0.20060    0.24836    0.50260    1.000
    O77      O        0.22890    0.28506    0.50970    1.000
    O78      O        0.19302    0.35069    0.35980    1.000
    O79      O        0.15380    0.34038    0.28460    1.000
    O80      O        0.05940    0.26463    0.98200    1.000
    O81      O        0.03807    0.28800    0.05680    1.000
    O82      O        0.06920    0.17294    0.02030    1.000
    O83      O        0.05770    0.15830    0.11090    1.000
    C142     C        0.34270    0.17291    0.93840    1.000
    C143     C        0.32650    0.17054    0.88050    1.000
    H55      H        0.34010    0.17700    0.84730    1.000
    C144     C        0.29020    0.15860    0.87220    1.000
    C145     C        0.26980    0.14960    0.92340    1.000
    H56      H        0.24550    0.14160    0.91790    1.000
    C146     C        0.28460    0.15240    0.98220    1.000
    C147     C        0.32110    0.16414    0.98920    1.000
    H57      H        0.33150    0.16630    0.02800    1.000
    C148     C        0.27360    0.15445    0.81020    1.000
    C149     C        0.26970    0.17490    0.77060    1.000
    H58      H        0.27900    0.19050    0.78200    1.000
    C150     C        0.25220    0.17151    0.71520    1.000
    C151     C        0.24060    0.14829    0.69550    1.000
    H59      H        0.23060    0.14610    0.65650    1.000
    C152     C        0.24440    0.12790    0.73530    1.000
    C153     C        0.26020    0.13140    0.79290    1.000
    H60      H        0.26170    0.11810    0.81980    1.000
    C154     C        0.26210    0.14417    0.03660    1.000
    C155     C        0.28130    0.13806    0.08810    1.000
    H61      H        0.30910    0.13860    0.08900    1.000
    C156     C        0.26080    0.13107    0.13960    1.000
    C157     C        0.21930    0.13028    0.13950    1.000
    H62      H        0.20520    0.12610    0.17440    1.000
    C158     C        0.19930    0.13596    0.08580    1.000
    C159     C        0.22030    0.14287    0.03520    1.000
    H63      H        0.20670    0.14670    0.99960    1.000
    C160     C        0.38400    0.18276    0.94670    1.000
    C161     C        0.24120    0.19380    0.67890    1.000
    C162     C        0.23100    0.10237    0.71750    1.000
    C163     C        0.28390    0.12579    0.19710    1.000
    C164     C        0.15460    0.13346    0.08350    1.000
    C165     C        0.04390    0.22628    0.35210    1.000
    C166     C        0.07390    0.24115    0.37380    1.000
    H64      H        0.07770    0.24260    0.41540    1.000
    C167     C        0.09860    0.25399    0.33430    1.000
    C168     C        0.09300    0.25124    0.27270    1.000
    H65      H        0.10920    0.26000    0.24590    1.000
    C169     C        0.06350    0.23570    0.25000    1.000
    C170     C        0.03860    0.22288    0.28950    1.000
    H66      H        0.01890    0.21230    0.27480    1.000
    C171     C        0.13060    0.27078    0.36000    1.000
    C172     C        0.15270    0.26348    0.40940    1.000
    H67      H        0.14810    0.24790    0.42650    1.000
    C173     C        0.18150    0.27852    0.43430    1.000
    C174     C        0.18810    0.30203    0.40900    1.000
    H68      H        0.20720    0.31260    0.42540    1.000
    C175     C        0.16600    0.30932    0.35950    1.000
    C176     C        0.13800    0.29355    0.33460    1.000
    H69      H        0.12390    0.29850    0.30020    1.000
    C177     C        0.06010    0.23071    0.18310    1.000
    C178     C        0.05700    0.25074    0.14170    1.000
    H70      H        0.05640    0.26700    0.15590    1.000
    C179     C        0.05490    0.24615    0.08080    1.000
    C180     C        0.05710    0.22241    0.05910    1.000
    H71      H        0.05740    0.21960    0.01750    1.000
    C181     C        0.05890    0.20216    0.09900    1.000
    C182     C        0.05960    0.20677    0.16110    1.000
    H72      H        0.05980    0.19350    0.18810    1.000
    C183     C        0.01510    0.21422    0.39530    1.000
    C184     C        0.20490    0.26988    0.48670    1.000
    C185     C        0.17130    0.33481    0.33280    1.000
    C186     C        0.05010    0.26748    0.03830    1.000
    C187     C        0.06210    0.17670    0.07540    1.000
    O84      O        0.27180    0.21170    0.68900    1.000
    C188     C        0.25590    0.19200    0.67190    1.000
    In13     In       0.27908    0.27868    0.56868    1.000
    In14     In       0.29228    0.44553    0.71191    1.000
    In15     In       0.32715    0.11946    0.29403    1.000
    O85      O        0.09840    0.30746    0.90340    1.000
    O86      O        0.09979    0.31904    0.99770    1.000
    O87      O        0.26560    0.30980    0.62350    1.000
    O88      O        0.25770    0.28550    0.70200    1.000
    O89      O        0.28620    0.40169    0.67030    1.000
    O90      O        0.26270    0.41505    0.75420    1.000
    O91      O        0.23327    0.37606    0.24740    1.000
    O92      O        0.17895    0.37683    0.19350    1.000
    O93      O        0.36111    0.36152    0.03120    1.000
    O94      O        0.36530    0.37242    0.12740    1.000
    O95      O        0.51680    0.29488    0.37400    1.000
    O96      O        0.47810    0.28667    0.45060    1.000
    O97      O        0.29940    0.25164    0.50260    1.000
    O98      O        0.27110    0.21494    0.50970    1.000
    O99      O        0.30698    0.14931    0.35980    1.000
    O100     O        0.34620    0.15962    0.28460    1.000
    O101     O        0.44060    0.23537    0.98200    1.000
    O102     O        0.46193    0.21200    0.05680    1.000
    O103     O        0.43080    0.32706    0.02030    1.000
    O104     O        0.44230    0.34170    0.11090    1.000
    C189     C        0.15730    0.32709    0.93840    1.000
    C190     C        0.17350    0.32946    0.88050    1.000
    H73      H        0.15990    0.32300    0.84730    1.000
    C191     C        0.20980    0.34140    0.87220    1.000
    C192     C        0.23020    0.35040    0.92340    1.000
    H74      H        0.25450    0.35840    0.91790    1.000
    C193     C        0.21540    0.34760    0.98220    1.000
    C194     C        0.17890    0.33586    0.98920    1.000
    H75      H        0.16850    0.33370    0.02800    1.000
    C195     C        0.22640    0.34555    0.81020    1.000
    C196     C        0.23030    0.32510    0.77060    1.000
    H76      H        0.22100    0.30950    0.78200    1.000
    C197     C        0.24780    0.32849    0.71520    1.000
    C198     C        0.25940    0.35171    0.69550    1.000
    H77      H        0.26940    0.35390    0.65650    1.000
    C199     C        0.25560    0.37210    0.73530    1.000
    C200     C        0.23980    0.36860    0.79290    1.000
    H78      H        0.23830    0.38190    0.81980    1.000
    C201     C        0.23790    0.35583    0.03660    1.000
    C202     C        0.21870    0.36194    0.08810    1.000
    H79      H        0.19090    0.36140    0.08900    1.000
    C203     C        0.23920    0.36893    0.13960    1.000
    C204     C        0.28070    0.36972    0.13950    1.000
    H80      H        0.29480    0.37390    0.17440    1.000
    C205     C        0.30070    0.36404    0.08580    1.000
    C206     C        0.27970    0.35713    0.03520    1.000
    H81      H        0.29330    0.35330    0.99960    1.000
    C207     C        0.11600    0.31724    0.94670    1.000
    C208     C        0.25880    0.30620    0.67890    1.000
    C209     C        0.26900    0.39763    0.71750    1.000
    C210     C        0.21610    0.37421    0.19710    1.000
    C211     C        0.34540    0.36654    0.08350    1.000
    C212     C        0.45610    0.27372    0.35210    1.000
    C213     C        0.42610    0.25885    0.37380    1.000
    H82      H        0.42230    0.25740    0.41540    1.000
    C214     C        0.40140    0.24601    0.33430    1.000
    C215     C        0.40700    0.24876    0.27270    1.000
    H83      H        0.39080    0.24000    0.24590    1.000
    C216     C        0.43650    0.26430    0.25000    1.000
    C217     C        0.46140    0.27712    0.28950    1.000
    H84      H        0.48110    0.28770    0.27480    1.000
    C218     C        0.36940    0.22922    0.36000    1.000
    C219     C        0.34730    0.23652    0.40940    1.000
    H85      H        0.35190    0.25210    0.42650    1.000
    C220     C        0.31850    0.22148    0.43430    1.000
    C221     C        0.31190    0.19797    0.40900    1.000
    H86      H        0.29280    0.18740    0.42540    1.000
    C222     C        0.33400    0.19068    0.35950    1.000
    C223     C        0.36200    0.20645    0.33460    1.000
    H87      H        0.37610    0.20150    0.30020    1.000
    C224     C        0.43990    0.26929    0.18310    1.000
    C225     C        0.44300    0.24926    0.14170    1.000
    H88      H        0.44360    0.23300    0.15590    1.000
    C226     C        0.44510    0.25385    0.08080    1.000
    C227     C        0.44290    0.27759    0.05910    1.000
    H89      H        0.44260    0.28040    0.01750    1.000
    C228     C        0.44110    0.29784    0.09900    1.000
    C229     C        0.44040    0.29323    0.16110    1.000
    H90      H        0.44020    0.30650    0.18810    1.000
    C230     C        0.48490    0.28578    0.39530    1.000
    C231     C        0.29510    0.23012    0.48670    1.000
    C232     C        0.32870    0.16519    0.33280    1.000
    C233     C        0.44990    0.23252    0.03830    1.000
    C234     C        0.43790    0.32330    0.07540    1.000
    O105     O        0.22820    0.28830    0.68900    1.000
    C235     C        0.24410    0.30800    0.67190    1.000
    In16     In       0.27908    0.77868    0.06868    1.000
    In17     In       0.29228    0.94553    0.21191    1.000
    In18     In       0.32715    0.61946    0.79403    1.000
    O106     O        0.09840    0.80746    0.40340    1.000
    O107     O        0.09979    0.81904    0.49770    1.000
    O108     O        0.26560    0.80980    0.12350    1.000
    O109     O        0.25770    0.78550    0.20200    1.000
    O110     O        0.28620    0.90169    0.17030    1.000
    O111     O        0.26270    0.91505    0.25420    1.000
    O112     O        0.23327    0.87606    0.74740    1.000
    O113     O        0.17895    0.87683    0.69350    1.000
    O114     O        0.36111    0.86152    0.53120    1.000
    O115     O        0.36530    0.87242    0.62740    1.000
    O116     O        0.51680    0.79488    0.87400    1.000
    O117     O        0.47810    0.78667    0.95060    1.000
    O118     O        0.29940    0.75164    0.00260    1.000
    O119     O        0.27110    0.71494    0.00970    1.000
    O120     O        0.30698    0.64931    0.85980    1.000
    O121     O        0.34620    0.65962    0.78460    1.000
    O122     O        0.44060    0.73537    0.48200    1.000
    O123     O        0.46193    0.71200    0.55680    1.000
    O124     O        0.43080    0.82706    0.52030    1.000
    O125     O        0.44230    0.84170    0.61090    1.000
    C236     C        0.15730    0.82709    0.43840    1.000
    C237     C        0.17350    0.82946    0.38050    1.000
    H91      H        0.15990    0.82300    0.34730    1.000
    C238     C        0.20980    0.84140    0.37220    1.000
    C239     C        0.23020    0.85040    0.42340    1.000
    H92      H        0.25450    0.85840    0.41790    1.000
    C240     C        0.21540    0.84760    0.48220    1.000
    C241     C        0.17890    0.83586    0.48920    1.000
    H93      H        0.16850    0.83370    0.52800    1.000
    C242     C        0.22640    0.84555    0.31020    1.000
    C243     C        0.23030    0.82510    0.27060    1.000
    H94      H        0.22100    0.80950    0.28200    1.000
    C244     C        0.24780    0.82849    0.21520    1.000
    C245     C        0.25940    0.85171    0.19550    1.000
    H95      H        0.26940    0.85390    0.15650    1.000
    C246     C        0.25560    0.87210    0.23530    1.000
    C247     C        0.23980    0.86860    0.29290    1.000
    H96      H        0.23830    0.88190    0.31980    1.000
    C248     C        0.23790    0.85583    0.53660    1.000
    C249     C        0.21870    0.86194    0.58810    1.000
    H97      H        0.19090    0.86140    0.58900    1.000
    C250     C        0.23920    0.86893    0.63960    1.000
    C251     C        0.28070    0.86972    0.63950    1.000
    H98      H        0.29480    0.87390    0.67440    1.000
    C252     C        0.30070    0.86404    0.58580    1.000
    C253     C        0.27970    0.85713    0.53520    1.000
    H99      H        0.29330    0.85330    0.49960    1.000
    C254     C        0.11600    0.81724    0.44670    1.000
    C255     C        0.25880    0.80620    0.17890    1.000
    C256     C        0.26900    0.89763    0.21750    1.000
    C257     C        0.21610    0.87421    0.69710    1.000
    C258     C        0.34540    0.86654    0.58350    1.000
    C259     C        0.45610    0.77372    0.85210    1.000
    C260     C        0.42610    0.75885    0.87380    1.000
    H100     H        0.42230    0.75740    0.91540    1.000
    C261     C        0.40140    0.74601    0.83430    1.000
    C262     C        0.40700    0.74876    0.77270    1.000
    H101     H        0.39080    0.74000    0.74590    1.000
    C263     C        0.43650    0.76430    0.75000    1.000
    C264     C        0.46140    0.77712    0.78950    1.000
    H102     H        0.48110    0.78770    0.77480    1.000
    C265     C        0.36940    0.72922    0.86000    1.000
    C266     C        0.34730    0.73652    0.90940    1.000
    H103     H        0.35190    0.75210    0.92650    1.000
    C267     C        0.31850    0.72148    0.93430    1.000
    C268     C        0.31190    0.69797    0.90900    1.000
    H104     H        0.29280    0.68740    0.92540    1.000
    C269     C        0.33400    0.69068    0.85950    1.000
    C270     C        0.36200    0.70645    0.83460    1.000
    H105     H        0.37610    0.70150    0.80020    1.000
    C271     C        0.43990    0.76929    0.68310    1.000
    C272     C        0.44300    0.74926    0.64170    1.000
    H106     H        0.44360    0.73300    0.65590    1.000
    C273     C        0.44510    0.75385    0.58080    1.000
    C274     C        0.44290    0.77759    0.55910    1.000
    H107     H        0.44260    0.78040    0.51750    1.000
    C275     C        0.44110    0.79784    0.59900    1.000
    C276     C        0.44040    0.79323    0.66110    1.000
    H108     H        0.44020    0.80650    0.68810    1.000
    C277     C        0.48490    0.78578    0.89530    1.000
    C278     C        0.29510    0.73012    0.98670    1.000
    C279     C        0.32870    0.66519    0.83280    1.000
    C280     C        0.44990    0.73252    0.53830    1.000
    C281     C        0.43790    0.82330    0.57540    1.000
    O126     O        0.22820    0.78830    0.18900    1.000
    C282     C        0.24410    0.80800    0.17190    1.000
    In19     In       0.77908    0.27868    0.06868    1.000
    In20     In       0.79228    0.44553    0.21191    1.000
    In21     In       0.82715    0.11946    0.79403    1.000
    O127     O        0.59840    0.30746    0.40340    1.000
    O128     O        0.59979    0.31904    0.49770    1.000
    O129     O        0.76560    0.30980    0.12350    1.000
    O130     O        0.75770    0.28550    0.20200    1.000
    O131     O        0.78620    0.40169    0.17030    1.000
    O132     O        0.76270    0.41505    0.25420    1.000
    O133     O        0.73327    0.37606    0.74740    1.000
    O134     O        0.67895    0.37683    0.69350    1.000
    O135     O        0.86111    0.36152    0.53120    1.000
    O136     O        0.86530    0.37242    0.62740    1.000
    O137     O        0.01680    0.29488    0.87400    1.000
    O138     O        0.97810    0.28667    0.95060    1.000
    O139     O        0.79940    0.25164    0.00260    1.000
    O140     O        0.77110    0.21494    0.00970    1.000
    O141     O        0.80698    0.14931    0.85980    1.000
    O142     O        0.84620    0.15962    0.78460    1.000
    O143     O        0.94060    0.23537    0.48200    1.000
    O144     O        0.96193    0.21200    0.55680    1.000
    O145     O        0.93080    0.32706    0.52030    1.000
    O146     O        0.94230    0.34170    0.61090    1.000
    C283     C        0.65730    0.32709    0.43840    1.000
    C284     C        0.67350    0.32946    0.38050    1.000
    H109     H        0.65990    0.32300    0.34730    1.000
    C285     C        0.70980    0.34140    0.37220    1.000
    C286     C        0.73020    0.35040    0.42340    1.000
    H110     H        0.75450    0.35840    0.41790    1.000
    C287     C        0.71540    0.34760    0.48220    1.000
    C288     C        0.67890    0.33586    0.48920    1.000
    H111     H        0.66850    0.33370    0.52800    1.000
    C289     C        0.72640    0.34555    0.31020    1.000
    C290     C        0.73030    0.32510    0.27060    1.000
    H112     H        0.72100    0.30950    0.28200    1.000
    C291     C        0.74780    0.32849    0.21520    1.000
    C292     C        0.75940    0.35171    0.19550    1.000
    H113     H        0.76940    0.35390    0.15650    1.000
    C293     C        0.75560    0.37210    0.23530    1.000
    C294     C        0.73980    0.36860    0.29290    1.000
    H114     H        0.73830    0.38190    0.31980    1.000
    C295     C        0.73790    0.35583    0.53660    1.000
    C296     C        0.71870    0.36194    0.58810    1.000
    H115     H        0.69090    0.36140    0.58900    1.000
    C297     C        0.73920    0.36893    0.63960    1.000
    C298     C        0.78070    0.36972    0.63950    1.000
    H116     H        0.79480    0.37390    0.67440    1.000
    C299     C        0.80070    0.36404    0.58580    1.000
    C300     C        0.77970    0.35713    0.53520    1.000
    H117     H        0.79330    0.35330    0.49960    1.000
    C301     C        0.61600    0.31724    0.44670    1.000
    C302     C        0.75880    0.30620    0.17890    1.000
    C303     C        0.76900    0.39763    0.21750    1.000
    C304     C        0.71610    0.37421    0.69710    1.000
    C305     C        0.84540    0.36654    0.58350    1.000
    C306     C        0.95610    0.27372    0.85210    1.000
    C307     C        0.92610    0.25885    0.87380    1.000
    H118     H        0.92230    0.25740    0.91540    1.000
    C308     C        0.90140    0.24601    0.83430    1.000
    C309     C        0.90700    0.24876    0.77270    1.000
    H119     H        0.89080    0.24000    0.74590    1.000
    C310     C        0.93650    0.26430    0.75000    1.000
    C311     C        0.96140    0.27712    0.78950    1.000
    H120     H        0.98110    0.28770    0.77480    1.000
    C312     C        0.86940    0.22922    0.86000    1.000
    C313     C        0.84730    0.23652    0.90940    1.000
    H121     H        0.85190    0.25210    0.92650    1.000
    C314     C        0.81850    0.22148    0.93430    1.000
    C315     C        0.81190    0.19797    0.90900    1.000
    H122     H        0.79280    0.18740    0.92540    1.000
    C316     C        0.83400    0.19068    0.85950    1.000
    C317     C        0.86200    0.20645    0.83460    1.000
    H123     H        0.87610    0.20150    0.80020    1.000
    C318     C        0.93990    0.26929    0.68310    1.000
    C319     C        0.94300    0.24926    0.64170    1.000
    H124     H        0.94360    0.23300    0.65590    1.000
    C320     C        0.94510    0.25385    0.58080    1.000
    C321     C        0.94290    0.27759    0.55910    1.000
    H125     H        0.94260    0.28040    0.51750    1.000
    C322     C        0.94110    0.29784    0.59900    1.000
    C323     C        0.94040    0.29323    0.66110    1.000
    H126     H        0.94020    0.30650    0.68810    1.000
    C324     C        0.98490    0.28578    0.89530    1.000
    C325     C        0.79510    0.23012    0.98670    1.000
    C326     C        0.82870    0.16519    0.83280    1.000
    C327     C        0.94990    0.23252    0.53830    1.000
    C328     C        0.93790    0.32330    0.57540    1.000
    O147     O        0.72820    0.28830    0.18900    1.000
    C329     C        0.74410    0.30800    0.17190    1.000
    In22     In       0.77908    0.77868    0.56868    1.000
    In23     In       0.79228    0.94553    0.71191    1.000
    In24     In       0.82715    0.61946    0.29403    1.000
    O148     O        0.59840    0.80746    0.90340    1.000
    O149     O        0.59979    0.81904    0.99770    1.000
    O150     O        0.76560    0.80980    0.62350    1.000
    O151     O        0.75770    0.78550    0.70200    1.000
    O152     O        0.78620    0.90169    0.67030    1.000
    O153     O        0.76270    0.91505    0.75420    1.000
    O154     O        0.73327    0.87606    0.24740    1.000
    O155     O        0.67895    0.87683    0.19350    1.000
    O156     O        0.86111    0.86152    0.03120    1.000
    O157     O        0.86530    0.87242    0.12740    1.000
    O158     O        0.01680    0.79488    0.37400    1.000
    O159     O        0.97810    0.78667    0.45060    1.000
    O160     O        0.79940    0.75164    0.50260    1.000
    O161     O        0.77110    0.71494    0.50970    1.000
    O162     O        0.80698    0.64931    0.35980    1.000
    O163     O        0.84620    0.65962    0.28460    1.000
    O164     O        0.94060    0.73537    0.98200    1.000
    O165     O        0.96193    0.71200    0.05680    1.000
    O166     O        0.93080    0.82706    0.02030    1.000
    O167     O        0.94230    0.84170    0.11090    1.000
    C330     C        0.65730    0.82709    0.93840    1.000
    C331     C        0.67350    0.82946    0.88050    1.000
    H127     H        0.65990    0.82300    0.84730    1.000
    C332     C        0.70980    0.84140    0.87220    1.000
    C333     C        0.73020    0.85040    0.92340    1.000
    H128     H        0.75450    0.85840    0.91790    1.000
    C334     C        0.71540    0.84760    0.98220    1.000
    C335     C        0.67890    0.83586    0.98920    1.000
    H129     H        0.66850    0.83370    0.02800    1.000
    C336     C        0.72640    0.84555    0.81020    1.000
    C337     C        0.73030    0.82510    0.77060    1.000
    H130     H        0.72100    0.80950    0.78200    1.000
    C338     C        0.74780    0.82849    0.71520    1.000
    C339     C        0.75940    0.85171    0.69550    1.000
    H131     H        0.76940    0.85390    0.65650    1.000
    C340     C        0.75560    0.87210    0.73530    1.000
    C341     C        0.73980    0.86860    0.79290    1.000
    H132     H        0.73830    0.88190    0.81980    1.000
    C342     C        0.73790    0.85583    0.03660    1.000
    C343     C        0.71870    0.86194    0.08810    1.000
    H133     H        0.69090    0.86140    0.08900    1.000
    C344     C        0.73920    0.86893    0.13960    1.000
    C345     C        0.78070    0.86972    0.13950    1.000
    H134     H        0.79480    0.87390    0.17440    1.000
    C346     C        0.80070    0.86404    0.08580    1.000
    C347     C        0.77970    0.85713    0.03520    1.000
    H135     H        0.79330    0.85330    0.99960    1.000
    C348     C        0.61600    0.81724    0.94670    1.000
    C349     C        0.75880    0.80620    0.67890    1.000
    C350     C        0.76900    0.89763    0.71750    1.000
    C351     C        0.71610    0.87421    0.19710    1.000
    C352     C        0.84540    0.86654    0.08350    1.000
    C353     C        0.95610    0.77372    0.35210    1.000
    C354     C        0.92610    0.75885    0.37380    1.000
    H136     H        0.92230    0.75740    0.41540    1.000
    C355     C        0.90140    0.74601    0.33430    1.000
    C356     C        0.90700    0.74876    0.27270    1.000
    H137     H        0.89080    0.74000    0.24590    1.000
    C357     C        0.93650    0.76430    0.25000    1.000
    C358     C        0.96140    0.77712    0.28950    1.000
    H138     H        0.98110    0.78770    0.27480    1.000
    C359     C        0.86940    0.72922    0.36000    1.000
    C360     C        0.84730    0.73652    0.40940    1.000
    H139     H        0.85190    0.75210    0.42650    1.000
    C361     C        0.81850    0.72148    0.43430    1.000
    C362     C        0.81190    0.69797    0.40900    1.000
    H140     H        0.79280    0.68740    0.42540    1.000
    C363     C        0.83400    0.69068    0.35950    1.000
    C364     C        0.86200    0.70645    0.33460    1.000
    H141     H        0.87610    0.70150    0.30020    1.000
    C365     C        0.93990    0.76929    0.18310    1.000
    C366     C        0.94300    0.74926    0.14170    1.000
    H142     H        0.94360    0.73300    0.15590    1.000
    C367     C        0.94510    0.75385    0.08080    1.000
    C368     C        0.94290    0.77759    0.05910    1.000
    H143     H        0.94260    0.78040    0.01750    1.000
    C369     C        0.94110    0.79784    0.09900    1.000
    C370     C        0.94040    0.79323    0.16110    1.000
    H144     H        0.94020    0.80650    0.18810    1.000
    C371     C        0.98490    0.78578    0.39530    1.000
    C372     C        0.79510    0.73012    0.48670    1.000
    C373     C        0.82870    0.66519    0.33280    1.000
    C374     C        0.94990    0.73252    0.03830    1.000
    C375     C        0.93790    0.82330    0.07540    1.000
    O168     O        0.72820    0.78830    0.68900    1.000
    C376     C        0.74410    0.80800    0.67190    1.000
    In25     In       0.97092    0.52868    0.81868    1.000
    In26     In       0.95772    0.69553    0.96191    1.000
    In27     In       0.92285    0.36946    0.54403    1.000
    O169     O        0.15160    0.55746    0.15340    1.000
    O170     O        0.15021    0.56904    0.24770    1.000
    O171     O        0.98440    0.55980    0.87350    1.000
    O172     O        0.99230    0.53550    0.95200    1.000
    O173     O        0.96380    0.65169    0.92030    1.000
    O174     O        0.98730    0.66505    0.00420    1.000
    O175     O        0.01673    0.62606    0.49740    1.000
    O176     O        0.07105    0.62683    0.44350    1.000
    O177     O        0.88889    0.61152    0.28120    1.000
    O178     O        0.88470    0.62242    0.37740    1.000
    O179     O        0.73320    0.54488    0.62400    1.000
    O180     O        0.77190    0.53667    0.70060    1.000
    O181     O        0.95060    0.50164    0.75260    1.000
    O182     O        0.97890    0.46494    0.75970    1.000
    O183     O        0.94302    0.39931    0.60980    1.000
    O184     O        0.90380    0.40962    0.53460    1.000
    O185     O        0.80940    0.48537    0.23200    1.000
    O186     O        0.78807    0.46200    0.30680    1.000
    O187     O        0.81920    0.57706    0.27030    1.000
    O188     O        0.80770    0.59170    0.36090    1.000
    C377     C        0.09270    0.57709    0.18840    1.000
    C378     C        0.07650    0.57946    0.13050    1.000
    H145     H        0.09010    0.57300    0.09730    1.000
    C379     C        0.04020    0.59140    0.12220    1.000
    C380     C        0.01980    0.60040    0.17340    1.000
    H146     H        0.99550    0.60840    0.16790    1.000
    C381     C        0.03460    0.59760    0.23220    1.000
    C382     C        0.07110    0.58586    0.23920    1.000
    H147     H        0.08150    0.58370    0.27800    1.000
    C383     C        0.02360    0.59555    0.06020    1.000
    C384     C        0.01970    0.57510    0.02060    1.000
    H148     H        0.02900    0.55950    0.03200    1.000
    C385     C        0.00220    0.57849    0.96520    1.000
    C386     C        0.99060    0.60171    0.94550    1.000
    H149     H        0.98060    0.60390    0.90650    1.000
    C387     C        0.99440    0.62210    0.98530    1.000
    C388     C        0.01020    0.61860    0.04290    1.000
    H150     H        0.01170    0.63190    0.06980    1.000
    C389     C        0.01210    0.60583    0.28660    1.000
    C390     C        0.03130    0.61194    0.33810    1.000
    H151     H        0.05910    0.61140    0.33900    1.000
    C391     C        0.01080    0.61893    0.38960    1.000
    C392     C        0.96930    0.61972    0.38950    1.000
    H152     H        0.95520    0.62390    0.42440    1.000
    C393     C        0.94930    0.61404    0.33580    1.000
    C394     C        0.97030    0.60713    0.28520    1.000
    H153     H        0.95670    0.60330    0.24960    1.000
    C395     C        0.13400    0.56724    0.19670    1.000
    C396     C        0.99120    0.55620    0.92890    1.000
    C397     C        0.98100    0.64763    0.96750    1.000
    C398     C        0.03390    0.62421    0.44710    1.000
    C399     C        0.90460    0.61654    0.33350    1.000
    C400     C        0.79390    0.52372    0.60210    1.000
    C401     C        0.82390    0.50885    0.62380    1.000
    H154     H        0.82770    0.50740    0.66540    1.000
    C402     C        0.84860    0.49601    0.58430    1.000
    C403     C        0.84300    0.49876    0.52270    1.000
    H155     H        0.85920    0.49000    0.49590    1.000
    C404     C        0.81350    0.51430    0.50000    1.000
    C405     C        0.78860    0.52712    0.53950    1.000
    H156     H        0.76890    0.53770    0.52480    1.000
    C406     C        0.88060    0.47922    0.61000    1.000
    C407     C        0.90270    0.48652    0.65940    1.000
    H157     H        0.89810    0.50210    0.67650    1.000
    C408     C        0.93150    0.47148    0.68430    1.000
    C409     C        0.93810    0.44797    0.65900    1.000
    H158     H        0.95720    0.43740    0.67540    1.000
    C410     C        0.91600    0.44068    0.60950    1.000
    C411     C        0.88800    0.45645    0.58460    1.000
    H159     H        0.87390    0.45150    0.55020    1.000
    C412     C        0.81010    0.51929    0.43310    1.000
    C413     C        0.80700    0.49926    0.39170    1.000
    H160     H        0.80640    0.48300    0.40590    1.000
    C414     C        0.80490    0.50385    0.33080    1.000
    C415     C        0.80710    0.52759    0.30910    1.000
    H161     H        0.80740    0.53040    0.26750    1.000
    C416     C        0.80890    0.54784    0.34900    1.000
    C417     C        0.80960    0.54323    0.41110    1.000
    H162     H        0.80980    0.55650    0.43810    1.000
    C418     C        0.76510    0.53578    0.64530    1.000
    C419     C        0.95490    0.48012    0.73670    1.000
    C420     C        0.92130    0.41519    0.58280    1.000
    C421     C        0.80010    0.48252    0.28830    1.000
    C422     C        0.81210    0.57330    0.32540    1.000
    O189     O        0.02180    0.53830    0.93900    1.000
    C423     C        0.00590    0.55800    0.92190    1.000
    In28     In       0.97092    0.02868    0.31868    1.000
    In29     In       0.95772    0.19553    0.46191    1.000
    In30     In       0.92285    0.86946    0.04403    1.000
    O190     O        0.15160    0.05746    0.65340    1.000
    O191     O        0.15021    0.06904    0.74770    1.000
    O192     O        0.98440    0.05980    0.37350    1.000
    O193     O        0.99230    0.03550    0.45200    1.000
    O194     O        0.96380    0.15169    0.42030    1.000
    O195     O        0.98730    0.16505    0.50420    1.000
    O196     O        0.01673    0.12606    0.99740    1.000
    O197     O        0.07105    0.12683    0.94350    1.000
    O198     O        0.88889    0.11152    0.78120    1.000
    O199     O        0.88470    0.12242    0.87740    1.000
    O200     O        0.73320    0.04488    0.12400    1.000
    O201     O        0.77190    0.03667    0.20060    1.000
    O202     O        0.95060    0.00164    0.25260    1.000
    O203     O        0.97890    0.96494    0.25970    1.000
    O204     O        0.94302    0.89931    0.10980    1.000
    O205     O        0.90380    0.90962    0.03460    1.000
    O206     O        0.80940    0.98537    0.73200    1.000
    O207     O        0.78807    0.96200    0.80680    1.000
    O208     O        0.81920    0.07706    0.77030    1.000
    O209     O        0.80770    0.09170    0.86090    1.000
    C424     C        0.09270    0.07709    0.68840    1.000
    C425     C        0.07650    0.07946    0.63050    1.000
    H163     H        0.09010    0.07300    0.59730    1.000
    C426     C        0.04020    0.09140    0.62220    1.000
    C427     C        0.01980    0.10040    0.67340    1.000
    H164     H        0.99550    0.10840    0.66790    1.000
    C428     C        0.03460    0.09760    0.73220    1.000
    C429     C        0.07110    0.08586    0.73920    1.000
    H165     H        0.08150    0.08370    0.77800    1.000
    C430     C        0.02360    0.09555    0.56020    1.000
    C431     C        0.01970    0.07510    0.52060    1.000
    H166     H        0.02900    0.05950    0.53200    1.000
    C432     C        0.00220    0.07849    0.46520    1.000
    C433     C        0.99060    0.10171    0.44550    1.000
    H167     H        0.98060    0.10390    0.40650    1.000
    C434     C        0.99440    0.12210    0.48530    1.000
    C435     C        0.01020    0.11860    0.54290    1.000
    H168     H        0.01170    0.13190    0.56980    1.000
    C436     C        0.01210    0.10583    0.78660    1.000
    C437     C        0.03130    0.11194    0.83810    1.000
    H169     H        0.05910    0.11140    0.83900    1.000
    C438     C        0.01080    0.11893    0.88960    1.000
    C439     C        0.96930    0.11972    0.88950    1.000
    H170     H        0.95520    0.12390    0.92440    1.000
    C440     C        0.94930    0.11404    0.83580    1.000
    C441     C        0.97030    0.10713    0.78520    1.000
    H171     H        0.95670    0.10330    0.74960    1.000
    C442     C        0.13400    0.06724    0.69670    1.000
    C443     C        0.99120    0.05620    0.42890    1.000
    C444     C        0.98100    0.14763    0.46750    1.000
    C445     C        0.03390    0.12421    0.94710    1.000
    C446     C        0.90460    0.11654    0.83350    1.000
    C447     C        0.79390    0.02372    0.10210    1.000
    C448     C        0.82390    0.00885    0.12380    1.000
    H172     H        0.82770    0.00740    0.16540    1.000
    C449     C        0.84860    0.99601    0.08430    1.000
    C450     C        0.84300    0.99876    0.02270    1.000
    H173     H        0.85920    0.99000    0.99590    1.000
    C451     C        0.81350    0.01430    0.00000    1.000
    C452     C        0.78860    0.02712    0.03950    1.000
    H174     H        0.76890    0.03770    0.02480    1.000
    C453     C        0.88060    0.97922    0.11000    1.000
    C454     C        0.90270    0.98652    0.15940    1.000
    H175     H        0.89810    0.00210    0.17650    1.000
    C455     C        0.93150    0.97148    0.18430    1.000
    C456     C        0.93810    0.94797    0.15900    1.000
    H176     H        0.95720    0.93740    0.17540    1.000
    C457     C        0.91600    0.94068    0.10950    1.000
    C458     C        0.88800    0.95645    0.08460    1.000
    H177     H        0.87390    0.95150    0.05020    1.000
    C459     C        0.81010    0.01929    0.93310    1.000
    C460     C        0.80700    0.99926    0.89170    1.000
    H178     H        0.80640    0.98300    0.90590    1.000
    C461     C        0.80490    0.00385    0.83080    1.000
    C462     C        0.80710    0.02759    0.80910    1.000
    H179     H        0.80740    0.03040    0.76750    1.000
    C463     C        0.80890    0.04784    0.84900    1.000
    C464     C        0.80960    0.04323    0.91110    1.000
    H180     H        0.80980    0.05650    0.93810    1.000
    C465     C        0.76510    0.03578    0.14530    1.000
    C466     C        0.95490    0.98012    0.23670    1.000
    C467     C        0.92130    0.91519    0.08280    1.000
    C468     C        0.80010    0.98252    0.78830    1.000
    C469     C        0.81210    0.07330    0.82540    1.000
    O210     O        0.02180    0.03830    0.43900    1.000
    C470     C        0.00590    0.05800    0.42190    1.000
    In31     In       0.47092    0.52868    0.31868    1.000
    In32     In       0.45772    0.69553    0.46191    1.000
    In33     In       0.42285    0.36946    0.04403    1.000
    O211     O        0.65160    0.55746    0.65340    1.000
    O212     O        0.65021    0.56904    0.74770    1.000
    O213     O        0.48440    0.55980    0.37350    1.000
    O214     O        0.49230    0.53550    0.45200    1.000
    O215     O        0.46380    0.65169    0.42030    1.000
    O216     O        0.48730    0.66505    0.50420    1.000
    O217     O        0.51673    0.62606    0.99740    1.000
    O218     O        0.57105    0.62683    0.94350    1.000
    O219     O        0.38889    0.61152    0.78120    1.000
    O220     O        0.38470    0.62242    0.87740    1.000
    O221     O        0.23320    0.54488    0.12400    1.000
    O222     O        0.27190    0.53667    0.20060    1.000
    O223     O        0.45060    0.50164    0.25260    1.000
    O224     O        0.47890    0.46494    0.25970    1.000
    O225     O        0.44302    0.39931    0.10980    1.000
    O226     O        0.40380    0.40962    0.03460    1.000
    O227     O        0.30940    0.48537    0.73200    1.000
    O228     O        0.28807    0.46200    0.80680    1.000
    O229     O        0.31920    0.57706    0.77030    1.000
    O230     O        0.30770    0.59170    0.86090    1.000
    C471     C        0.59270    0.57709    0.68840    1.000
    C472     C        0.57650    0.57946    0.63050    1.000
    H181     H        0.59010    0.57300    0.59730    1.000
    C473     C        0.54020    0.59140    0.62220    1.000
    C474     C        0.51980    0.60040    0.67340    1.000
    H182     H        0.49550    0.60840    0.66790    1.000
    C475     C        0.53460    0.59760    0.73220    1.000
    C476     C        0.57110    0.58586    0.73920    1.000
    H183     H        0.58150    0.58370    0.77800    1.000
    C477     C        0.52360    0.59555    0.56020    1.000
    C478     C        0.51970    0.57510    0.52060    1.000
    H184     H        0.52900    0.55950    0.53200    1.000
    C479     C        0.50220    0.57849    0.46520    1.000
    C480     C        0.49060    0.60171    0.44550    1.000
    H185     H        0.48060    0.60390    0.40650    1.000
    C481     C        0.49440    0.62210    0.48530    1.000
    C482     C        0.51020    0.61860    0.54290    1.000
    H186     H        0.51170    0.63190    0.56980    1.000
    C483     C        0.51210    0.60583    0.78660    1.000
    C484     C        0.53130    0.61194    0.83810    1.000
    H187     H        0.55910    0.61140    0.83900    1.000
    C485     C        0.51080    0.61893    0.88960    1.000
    C486     C        0.46930    0.61972    0.88950    1.000
    H188     H        0.45520    0.62390    0.92440    1.000
    C487     C        0.44930    0.61404    0.83580    1.000
    C488     C        0.47030    0.60713    0.78520    1.000
    H189     H        0.45670    0.60330    0.74960    1.000
    C489     C        0.63400    0.56724    0.69670    1.000
    C490     C        0.49120    0.55620    0.42890    1.000
    C491     C        0.48100    0.64763    0.46750    1.000
    C492     C        0.53390    0.62421    0.94710    1.000
    C493     C        0.40460    0.61654    0.83350    1.000
    C494     C        0.29390    0.52372    0.10210    1.000
    C495     C        0.32390    0.50885    0.12380    1.000
    H190     H        0.32770    0.50740    0.16540    1.000
    C496     C        0.34860    0.49601    0.08430    1.000
    C497     C        0.34300    0.49876    0.02270    1.000
    H191     H        0.35920    0.49000    0.99590    1.000
    C498     C        0.31350    0.51430    0.00000    1.000
    C499     C        0.28860    0.52712    0.03950    1.000
    H192     H        0.26890    0.53770    0.02480    1.000
    C500     C        0.38060    0.47922    0.11000    1.000
    C501     C        0.40270    0.48652    0.15940    1.000
    H193     H        0.39810    0.50210    0.17650    1.000
    C502     C        0.43150    0.47148    0.18430    1.000
    C503     C        0.43810    0.44797    0.15900    1.000
    H194     H        0.45720    0.43740    0.17540    1.000
    C504     C        0.41600    0.44068    0.10950    1.000
    C505     C        0.38800    0.45645    0.08460    1.000
    H195     H        0.37390    0.45150    0.05020    1.000
    C506     C        0.31010    0.51929    0.93310    1.000
    C507     C        0.30700    0.49926    0.89170    1.000
    H196     H        0.30640    0.48300    0.90590    1.000
    C508     C        0.30490    0.50385    0.83080    1.000
    C509     C        0.30710    0.52759    0.80910    1.000
    H197     H        0.30740    0.53040    0.76750    1.000
    C510     C        0.30890    0.54784    0.84900    1.000
    C511     C        0.30960    0.54323    0.91110    1.000
    H198     H        0.30980    0.55650    0.93810    1.000
    C512     C        0.26510    0.53578    0.14530    1.000
    C513     C        0.45490    0.48012    0.23670    1.000
    C514     C        0.42130    0.41519    0.08280    1.000
    C515     C        0.30010    0.48252    0.78830    1.000
    C516     C        0.31210    0.57330    0.82540    1.000
    O231     O        0.52180    0.53830    0.43900    1.000
    C517     C        0.50590    0.55800    0.42190    1.000
    In34     In       0.47092    0.02868    0.81868    1.000
    In35     In       0.45772    0.19553    0.96191    1.000
    In36     In       0.42285    0.86946    0.54403    1.000
    O232     O        0.65160    0.05746    0.15340    1.000
    O233     O        0.65021    0.06904    0.24770    1.000
    O234     O        0.48440    0.05980    0.87350    1.000
    O235     O        0.49230    0.03550    0.95200    1.000
    O236     O        0.46380    0.15169    0.92030    1.000
    O237     O        0.48730    0.16505    0.00420    1.000
    O238     O        0.51673    0.12606    0.49740    1.000
    O239     O        0.57105    0.12683    0.44350    1.000
    O240     O        0.38889    0.11152    0.28120    1.000
    O241     O        0.38470    0.12242    0.37740    1.000
    O242     O        0.23320    0.04488    0.62400    1.000
    O243     O        0.27190    0.03667    0.70060    1.000
    O244     O        0.45060    0.00164    0.75260    1.000
    O245     O        0.47890    0.96494    0.75970    1.000
    O246     O        0.44302    0.89931    0.60980    1.000
    O247     O        0.40380    0.90962    0.53460    1.000
    O248     O        0.30940    0.98537    0.23200    1.000
    O249     O        0.28807    0.96200    0.30680    1.000
    O250     O        0.31920    0.07706    0.27030    1.000
    O251     O        0.30770    0.09170    0.36090    1.000
    C518     C        0.59270    0.07709    0.18840    1.000
    C519     C        0.57650    0.07946    0.13050    1.000
    H199     H        0.59010    0.07300    0.09730    1.000
    C520     C        0.54020    0.09140    0.12220    1.000
    C521     C        0.51980    0.10040    0.17340    1.000
    H200     H        0.49550    0.10840    0.16790    1.000
    C522     C        0.53460    0.09760    0.23220    1.000
    C523     C        0.57110    0.08586    0.23920    1.000
    H201     H        0.58150    0.08370    0.27800    1.000
    C524     C        0.52360    0.09555    0.06020    1.000
    C525     C        0.51970    0.07510    0.02060    1.000
    H202     H        0.52900    0.05950    0.03200    1.000
    C526     C        0.50220    0.07849    0.96520    1.000
    C527     C        0.49060    0.10171    0.94550    1.000
    H203     H        0.48060    0.10390    0.90650    1.000
    C528     C        0.49440    0.12210    0.98530    1.000
    C529     C        0.51020    0.11860    0.04290    1.000
    H204     H        0.51170    0.13190    0.06980    1.000
    C530     C        0.51210    0.10583    0.28660    1.000
    C531     C        0.53130    0.11194    0.33810    1.000
    H205     H        0.55910    0.11140    0.33900    1.000
    C532     C        0.51080    0.11893    0.38960    1.000
    C533     C        0.46930    0.11972    0.38950    1.000
    H206     H        0.45520    0.12390    0.42440    1.000
    C534     C        0.44930    0.11404    0.33580    1.000
    C535     C        0.47030    0.10713    0.28520    1.000
    H207     H        0.45670    0.10330    0.24960    1.000
    C536     C        0.63400    0.06724    0.19670    1.000
    C537     C        0.49120    0.05620    0.92890    1.000
    C538     C        0.48100    0.14763    0.96750    1.000
    C539     C        0.53390    0.12421    0.44710    1.000
    C540     C        0.40460    0.11654    0.33350    1.000
    C541     C        0.29390    0.02372    0.60210    1.000
    C542     C        0.32390    0.00885    0.62380    1.000
    H208     H        0.32770    0.00740    0.66540    1.000
    C543     C        0.34860    0.99601    0.58430    1.000
    C544     C        0.34300    0.99876    0.52270    1.000
    H209     H        0.35920    0.99000    0.49590    1.000
    C545     C        0.31350    0.01430    0.50000    1.000
    C546     C        0.28860    0.02712    0.53950    1.000
    H210     H        0.26890    0.03770    0.52480    1.000
    C547     C        0.38060    0.97922    0.61000    1.000
    C548     C        0.40270    0.98652    0.65940    1.000
    H211     H        0.39810    0.00210    0.67650    1.000
    C549     C        0.43150    0.97148    0.68430    1.000
    C550     C        0.43810    0.94797    0.65900    1.000
    H212     H        0.45720    0.93740    0.67540    1.000
    C551     C        0.41600    0.94068    0.60950    1.000
    C552     C        0.38800    0.95645    0.58460    1.000
    H213     H        0.37390    0.95150    0.55020    1.000
    C553     C        0.31010    0.01929    0.43310    1.000
    C554     C        0.30700    0.99926    0.39170    1.000
    H214     H        0.30640    0.98300    0.40590    1.000
    C555     C        0.30490    0.00385    0.33080    1.000
    C556     C        0.30710    0.02759    0.30910    1.000
    H215     H        0.30740    0.03040    0.26750    1.000
    C557     C        0.30890    0.04784    0.34900    1.000
    C558     C        0.30960    0.04323    0.41110    1.000
    H216     H        0.30980    0.05650    0.43810    1.000
    C559     C        0.26510    0.03578    0.64530    1.000
    C560     C        0.45490    0.98012    0.73670    1.000
    C561     C        0.42130    0.91519    0.58280    1.000
    C562     C        0.30010    0.98252    0.28830    1.000
    C563     C        0.31210    0.07330    0.32540    1.000
    O252     O        0.52180    0.03830    0.93900    1.000
    C564     C        0.50590    0.05800    0.92190    1.000
    In37     In       0.52908    0.97132    0.81868    1.000
    In38     In       0.54228    0.80447    0.96191    1.000
    In39     In       0.57715    0.13054    0.54403    1.000
    O253     O        0.34840    0.94254    0.15340    1.000
    O254     O        0.34979    0.93096    0.24770    1.000
    O255     O        0.51560    0.94020    0.87350    1.000
    O256     O        0.50770    0.96450    0.95200    1.000
    O257     O        0.53620    0.84831    0.92030    1.000
    O258     O        0.51270    0.83495    0.00420    1.000
    O259     O        0.48327    0.87394    0.49740    1.000
    O260     O        0.42895    0.87317    0.44350    1.000
    O261     O        0.61111    0.88848    0.28120    1.000
    O262     O        0.61530    0.87758    0.37740    1.000
    O263     O        0.76680    0.95512    0.62400    1.000
    O264     O        0.72810    0.96333    0.70060    1.000
    O265     O        0.54940    0.99836    0.75260    1.000
    O266     O        0.52110    0.03506    0.75970    1.000
    O267     O        0.55698    0.10069    0.60980    1.000
    O268     O        0.59620    0.09038    0.53460    1.000
    O269     O        0.69060    0.01463    0.23200    1.000
    O270     O        0.71193    0.03800    0.30680    1.000
    O271     O        0.68080    0.92294    0.27030    1.000
    O272     O        0.69230    0.90830    0.36090    1.000
    C565     C        0.40730    0.92291    0.18840    1.000
    C566     C        0.42350    0.92054    0.13050    1.000
    H217     H        0.40990    0.92700    0.09730    1.000
    C567     C        0.45980    0.90860    0.12220    1.000
    C568     C        0.48020    0.89960    0.17340    1.000
    H218     H        0.50450    0.89160    0.16790    1.000
    C569     C        0.46540    0.90240    0.23220    1.000
    C570     C        0.42890    0.91414    0.23920    1.000
    H219     H        0.41850    0.91630    0.27800    1.000
    C571     C        0.47640    0.90445    0.06020    1.000
    C572     C        0.48030    0.92490    0.02060    1.000
    H220     H        0.47100    0.94050    0.03200    1.000
    C573     C        0.49780    0.92151    0.96520    1.000
    C574     C        0.50940    0.89829    0.94550    1.000
    H221     H        0.51940    0.89610    0.90650    1.000
    C575     C        0.50560    0.87790    0.98530    1.000
    C576     C        0.48980    0.88140    0.04290    1.000
    H222     H        0.48830    0.86810    0.06980    1.000
    C577     C        0.48790    0.89417    0.28660    1.000
    C578     C        0.46870    0.88806    0.33810    1.000
    H223     H        0.44090    0.88860    0.33900    1.000
    C579     C        0.48920    0.88107    0.38960    1.000
    C580     C        0.53070    0.88028    0.38950    1.000
    H224     H        0.54480    0.87610    0.42440    1.000
    C581     C        0.55070    0.88596    0.33580    1.000
    C582     C        0.52970    0.89287    0.28520    1.000
    H225     H        0.54330    0.89670    0.24960    1.000
    C583     C        0.36600    0.93276    0.19670    1.000
    C584     C        0.50880    0.94380    0.92890    1.000
    C585     C        0.51900    0.85237    0.96750    1.000
    C586     C        0.46610    0.87579    0.44710    1.000
    C587     C        0.59540    0.88346    0.33350    1.000
    C588     C        0.70610    0.97628    0.60210    1.000
    C589     C        0.67610    0.99115    0.62380    1.000
    H226     H        0.67230    0.99260    0.66540    1.000
    C590     C        0.65140    0.00399    0.58430    1.000
    C591     C        0.65700    0.00124    0.52270    1.000
    H227     H        0.64080    0.01000    0.49590    1.000
    C592     C        0.68650    0.98570    0.50000    1.000
    C593     C        0.71140    0.97288    0.53950    1.000
    H228     H        0.73110    0.96230    0.52480    1.000
    C594     C        0.61940    0.02078    0.61000    1.000
    C595     C        0.59730    0.01348    0.65940    1.000
    H229     H        0.60190    0.99790    0.67650    1.000
    C596     C        0.56850    0.02852    0.68430    1.000
    C597     C        0.56190    0.05203    0.65900    1.000
    H230     H        0.54280    0.06260    0.67540    1.000
    C598     C        0.58400    0.05932    0.60950    1.000
    C599     C        0.61200    0.04355    0.58460    1.000
    H231     H        0.62610    0.04850    0.55020    1.000
    C600     C        0.68990    0.98071    0.43310    1.000
    C601     C        0.69300    0.00074    0.39170    1.000
    H232     H        0.69360    0.01700    0.40590    1.000
    C602     C        0.69510    0.99615    0.33080    1.000
    C603     C        0.69290    0.97241    0.30910    1.000
    H233     H        0.69260    0.96960    0.26750    1.000
    C604     C        0.69110    0.95216    0.34900    1.000
    C605     C        0.69040    0.95677    0.41110    1.000
    H234     H        0.69020    0.94350    0.43810    1.000
    C606     C        0.73490    0.96422    0.64530    1.000
    C607     C        0.54510    0.01988    0.73670    1.000
    C608     C        0.57870    0.08481    0.58280    1.000
    C609     C        0.69990    0.01748    0.28830    1.000
    C610     C        0.68790    0.92670    0.32540    1.000
    O273     O        0.47820    0.96170    0.93900    1.000
    C611     C        0.49410    0.94200    0.92190    1.000
    In40     In       0.52908    0.47132    0.31868    1.000
    In41     In       0.54228    0.30447    0.46191    1.000
    In42     In       0.57715    0.63054    0.04403    1.000
    O274     O        0.34840    0.44254    0.65340    1.000
    O275     O        0.34979    0.43096    0.74770    1.000
    O276     O        0.51560    0.44020    0.37350    1.000
    O277     O        0.50770    0.46450    0.45200    1.000
    O278     O        0.53620    0.34831    0.42030    1.000
    O279     O        0.51270    0.33495    0.50420    1.000
    O280     O        0.48327    0.37394    0.99740    1.000
    O281     O        0.42895    0.37317    0.94350    1.000
    O282     O        0.61111    0.38848    0.78120    1.000
    O283     O        0.61530    0.37758    0.87740    1.000
    O284     O        0.76680    0.45512    0.12400    1.000
    O285     O        0.72810    0.46333    0.20060    1.000
    O286     O        0.54940    0.49836    0.25260    1.000
    O287     O        0.52110    0.53506    0.25970    1.000
    O288     O        0.55698    0.60069    0.10980    1.000
    O289     O        0.59620    0.59038    0.03460    1.000
    O290     O        0.69060    0.51463    0.73200    1.000
    O291     O        0.71193    0.53800    0.80680    1.000
    O292     O        0.68080    0.42294    0.77030    1.000
    O293     O        0.69230    0.40830    0.86090    1.000
    C612     C        0.40730    0.42291    0.68840    1.000
    C613     C        0.42350    0.42054    0.63050    1.000
    H235     H        0.40990    0.42700    0.59730    1.000
    C614     C        0.45980    0.40860    0.62220    1.000
    C615     C        0.48020    0.39960    0.67340    1.000
    H236     H        0.50450    0.39160    0.66790    1.000
    C616     C        0.46540    0.40240    0.73220    1.000
    C617     C        0.42890    0.41414    0.73920    1.000
    H237     H        0.41850    0.41630    0.77800    1.000
    C618     C        0.47640    0.40445    0.56020    1.000
    C619     C        0.48030    0.42490    0.52060    1.000
    H238     H        0.47100    0.44050    0.53200    1.000
    C620     C        0.49780    0.42151    0.46520    1.000
    C621     C        0.50940    0.39829    0.44550    1.000
    H239     H        0.51940    0.39610    0.40650    1.000
    C622     C        0.50560    0.37790    0.48530    1.000
    C623     C        0.48980    0.38140    0.54290    1.000
    H240     H        0.48830    0.36810    0.56980    1.000
    C624     C        0.48790    0.39417    0.78660    1.000
    C625     C        0.46870    0.38806    0.83810    1.000
    H241     H        0.44090    0.38860    0.83900    1.000
    C626     C        0.48920    0.38107    0.88960    1.000
    C627     C        0.53070    0.38028    0.88950    1.000
    H242     H        0.54480    0.37610    0.92440    1.000
    C628     C        0.55070    0.38596    0.83580    1.000
    C629     C        0.52970    0.39287    0.78520    1.000
    H243     H        0.54330    0.39670    0.74960    1.000
    C630     C        0.36600    0.43276    0.69670    1.000
    C631     C        0.50880    0.44380    0.42890    1.000
    C632     C        0.51900    0.35237    0.46750    1.000
    C633     C        0.46610    0.37579    0.94710    1.000
    C634     C        0.59540    0.38346    0.83350    1.000
    C635     C        0.70610    0.47628    0.10210    1.000
    C636     C        0.67610    0.49115    0.12380    1.000
    H244     H        0.67230    0.49260    0.16540    1.000
    C637     C        0.65140    0.50399    0.08430    1.000
    C638     C        0.65700    0.50124    0.02270    1.000
    H245     H        0.64080    0.51000    0.99590    1.000
    C639     C        0.68650    0.48570    0.00000    1.000
    C640     C        0.71140    0.47288    0.03950    1.000
    H246     H        0.73110    0.46230    0.02480    1.000
    C641     C        0.61940    0.52078    0.11000    1.000
    C642     C        0.59730    0.51348    0.15940    1.000
    H247     H        0.60190    0.49790    0.17650    1.000
    C643     C        0.56850    0.52852    0.18430    1.000
    C644     C        0.56190    0.55203    0.15900    1.000
    H248     H        0.54280    0.56260    0.17540    1.000
    C645     C        0.58400    0.55932    0.10950    1.000
    C646     C        0.61200    0.54355    0.08460    1.000
    H249     H        0.62610    0.54850    0.05020    1.000
    C647     C        0.68990    0.48071    0.93310    1.000
    C648     C        0.69300    0.50074    0.89170    1.000
    H250     H        0.69360    0.51700    0.90590    1.000
    C649     C        0.69510    0.49615    0.83080    1.000
    C650     C        0.69290    0.47241    0.80910    1.000
    H251     H        0.69260    0.46960    0.76750    1.000
    C651     C        0.69110    0.45216    0.84900    1.000
    C652     C        0.69040    0.45677    0.91110    1.000
    H252     H        0.69020    0.44350    0.93810    1.000
    C653     C        0.73490    0.46422    0.14530    1.000
    C654     C        0.54510    0.51988    0.23670    1.000
    C655     C        0.57870    0.58481    0.08280    1.000
    C656     C        0.69990    0.51748    0.78830    1.000
    C657     C        0.68790    0.42670    0.82540    1.000
    O294     O        0.47820    0.46170    0.43900    1.000
    C658     C        0.49410    0.44200    0.42190    1.000
    In43     In       0.02908    0.97132    0.31868    1.000
    In44     In       0.04228    0.80447    0.46191    1.000
    In45     In       0.07715    0.13054    0.04403    1.000
    O295     O        0.84840    0.94254    0.65340    1.000
    O296     O        0.84979    0.93096    0.74770    1.000
    O297     O        0.01560    0.94020    0.37350    1.000
    O298     O        0.00770    0.96450    0.45200    1.000
    O299     O        0.03620    0.84831    0.42030    1.000
    O300     O        0.01270    0.83495    0.50420    1.000
    O301     O        0.98327    0.87394    0.99740    1.000
    O302     O        0.92895    0.87317    0.94350    1.000
    O303     O        0.11111    0.88848    0.78120    1.000
    O304     O        0.11530    0.87758    0.87740    1.000
    O305     O        0.26680    0.95512    0.12400    1.000
    O306     O        0.22810    0.96333    0.20060    1.000
    O307     O        0.04940    0.99836    0.25260    1.000
    O308     O        0.02110    0.03506    0.25970    1.000
    O309     O        0.05698    0.10069    0.10980    1.000
    O310     O        0.09620    0.09038    0.03460    1.000
    O311     O        0.19060    0.01463    0.73200    1.000
    O312     O        0.21193    0.03800    0.80680    1.000
    O313     O        0.18080    0.92294    0.77030    1.000
    O314     O        0.19230    0.90830    0.86090    1.000
    C659     C        0.90730    0.92291    0.68840    1.000
    C660     C        0.92350    0.92054    0.63050    1.000
    H253     H        0.90990    0.92700    0.59730    1.000
    C661     C        0.95980    0.90860    0.62220    1.000
    C662     C        0.98020    0.89960    0.67340    1.000
    H254     H        0.00450    0.89160    0.66790    1.000
    C663     C        0.96540    0.90240    0.73220    1.000
    C664     C        0.92890    0.91414    0.73920    1.000
    H255     H        0.91850    0.91630    0.77800    1.000
    C665     C        0.97640    0.90445    0.56020    1.000
    C666     C        0.98030    0.92490    0.52060    1.000
    H256     H        0.97100    0.94050    0.53200    1.000
    C667     C        0.99780    0.92151    0.46520    1.000
    C668     C        0.00940    0.89829    0.44550    1.000
    H257     H        0.01940    0.89610    0.40650    1.000
    C669     C        0.00560    0.87790    0.48530    1.000
    C670     C        0.98980    0.88140    0.54290    1.000
    H258     H        0.98830    0.86810    0.56980    1.000
    C671     C        0.98790    0.89417    0.78660    1.000
    C672     C        0.96870    0.88806    0.83810    1.000
    H259     H        0.94090    0.88860    0.83900    1.000
    C673     C        0.98920    0.88107    0.88960    1.000
    C674     C        0.03070    0.88028    0.88950    1.000
    H260     H        0.04480    0.87610    0.92440    1.000
    C675     C        0.05070    0.88596    0.83580    1.000
    C676     C        0.02970    0.89287    0.78520    1.000
    H261     H        0.04330    0.89670    0.74960    1.000
    C677     C        0.86600    0.93276    0.69670    1.000
    C678     C        0.00880    0.94380    0.42890    1.000
    C679     C        0.01900    0.85237    0.46750    1.000
    C680     C        0.96610    0.87579    0.94710    1.000
    C681     C        0.09540    0.88346    0.83350    1.000
    C682     C        0.20610    0.97628    0.10210    1.000
    C683     C        0.17610    0.99115    0.12380    1.000
    H262     H        0.17230    0.99260    0.16540    1.000
    C684     C        0.15140    0.00399    0.08430    1.000
    C685     C        0.15700    0.00124    0.02270    1.000
    H263     H        0.14080    0.01000    0.99590    1.000
    C686     C        0.18650    0.98570    0.00000    1.000
    C687     C        0.21140    0.97288    0.03950    1.000
    H264     H        0.23110    0.96230    0.02480    1.000
    C688     C        0.11940    0.02078    0.11000    1.000
    C689     C        0.09730    0.01348    0.15940    1.000
    H265     H        0.10190    0.99790    0.17650    1.000
    C690     C        0.06850    0.02852    0.18430    1.000
    C691     C        0.06190    0.05203    0.15900    1.000
    H266     H        0.04280    0.06260    0.17540    1.000
    C692     C        0.08400    0.05932    0.10950    1.000
    C693     C        0.11200    0.04355    0.08460    1.000
    H267     H        0.12610    0.04850    0.05020    1.000
    C694     C        0.18990    0.98071    0.93310    1.000
    C695     C        0.19300    0.00074    0.89170    1.000
    H268     H        0.19360    0.01700    0.90590    1.000
    C696     C        0.19510    0.99615    0.83080    1.000
    C697     C        0.19290    0.97241    0.80910    1.000
    H269     H        0.19260    0.96960    0.76750    1.000
    C698     C        0.19110    0.95216    0.84900    1.000
    C699     C        0.19040    0.95677    0.91110    1.000
    H270     H        0.19020    0.94350    0.93810    1.000
    C700     C        0.23490    0.96422    0.14530    1.000
    C701     C        0.04510    0.01988    0.23670    1.000
    C702     C        0.07870    0.08481    0.08280    1.000
    C703     C        0.19990    0.01748    0.78830    1.000
    C704     C        0.18790    0.92670    0.82540    1.000
    O315     O        0.97820    0.96170    0.43900    1.000
    C705     C        0.99410    0.94200    0.42190    1.000
    In46     In       0.02908    0.47132    0.81868    1.000
    In47     In       0.04228    0.30447    0.96191    1.000
    In48     In       0.07715    0.63054    0.54403    1.000
    O316     O        0.84840    0.44254    0.15340    1.000
    O317     O        0.84979    0.43096    0.24770    1.000
    O318     O        0.01560    0.44020    0.87350    1.000
    O319     O        0.00770    0.46450    0.95200    1.000
    O320     O        0.03620    0.34831    0.92030    1.000
    O321     O        0.01270    0.33495    0.00420    1.000
    O322     O        0.98327    0.37394    0.49740    1.000
    O323     O        0.92895    0.37317    0.44350    1.000
    O324     O        0.11111    0.38848    0.28120    1.000
    O325     O        0.11530    0.37758    0.37740    1.000
    O326     O        0.26680    0.45512    0.62400    1.000
    O327     O        0.22810    0.46333    0.70060    1.000
    O328     O        0.04940    0.49836    0.75260    1.000
    O329     O        0.02110    0.53506    0.75970    1.000
    O330     O        0.05698    0.60069    0.60980    1.000
    O331     O        0.09620    0.59038    0.53460    1.000
    O332     O        0.19060    0.51463    0.23200    1.000
    O333     O        0.21193    0.53800    0.30680    1.000
    O334     O        0.18080    0.42294    0.27030    1.000
    O335     O        0.19230    0.40830    0.36090    1.000
    C706     C        0.90730    0.42291    0.18840    1.000
    C707     C        0.92350    0.42054    0.13050    1.000
    H271     H        0.90990    0.42700    0.09730    1.000
    C708     C        0.95980    0.40860    0.12220    1.000
    C709     C        0.98020    0.39960    0.17340    1.000
    H272     H        0.00450    0.39160    0.16790    1.000
    C710     C        0.96540    0.40240    0.23220    1.000
    C711     C        0.92890    0.41414    0.23920    1.000
    H273     H        0.91850    0.41630    0.27800    1.000
    C712     C        0.97640    0.40445    0.06020    1.000
    C713     C        0.98030    0.42490    0.02060    1.000
    H274     H        0.97100    0.44050    0.03200    1.000
    C714     C        0.99780    0.42151    0.96520    1.000
    C715     C        0.00940    0.39829    0.94550    1.000
    H275     H        0.01940    0.39610    0.90650    1.000
    C716     C        0.00560    0.37790    0.98530    1.000
    C717     C        0.98980    0.38140    0.04290    1.000
    H276     H        0.98830    0.36810    0.06980    1.000
    C718     C        0.98790    0.39417    0.28660    1.000
    C719     C        0.96870    0.38806    0.33810    1.000
    H277     H        0.94090    0.38860    0.33900    1.000
    C720     C        0.98920    0.38107    0.38960    1.000
    C721     C        0.03070    0.38028    0.38950    1.000
    H278     H        0.04480    0.37610    0.42440    1.000
    C722     C        0.05070    0.38596    0.33580    1.000
    C723     C        0.02970    0.39287    0.28520    1.000
    H279     H        0.04330    0.39670    0.24960    1.000
    C724     C        0.86600    0.43276    0.19670    1.000
    C725     C        0.00880    0.44380    0.92890    1.000
    C726     C        0.01900    0.35237    0.96750    1.000
    C727     C        0.96610    0.37579    0.44710    1.000
    C728     C        0.09540    0.38346    0.33350    1.000
    C729     C        0.20610    0.47628    0.60210    1.000
    C730     C        0.17610    0.49115    0.62380    1.000
    H280     H        0.17230    0.49260    0.66540    1.000
    C731     C        0.15140    0.50399    0.58430    1.000
    C732     C        0.15700    0.50124    0.52270    1.000
    H281     H        0.14080    0.51000    0.49590    1.000
    C733     C        0.18650    0.48570    0.50000    1.000
    C734     C        0.21140    0.47288    0.53950    1.000
    H282     H        0.23110    0.46230    0.52480    1.000
    C735     C        0.11940    0.52078    0.61000    1.000
    C736     C        0.09730    0.51348    0.65940    1.000
    H283     H        0.10190    0.49790    0.67650    1.000
    C737     C        0.06850    0.52852    0.68430    1.000
    C738     C        0.06190    0.55203    0.65900    1.000
    H284     H        0.04280    0.56260    0.67540    1.000
    C739     C        0.08400    0.55932    0.60950    1.000
    C740     C        0.11200    0.54355    0.58460    1.000
    H285     H        0.12610    0.54850    0.55020    1.000
    C741     C        0.18990    0.48071    0.43310    1.000
    C742     C        0.19300    0.50074    0.39170    1.000
    H286     H        0.19360    0.51700    0.40590    1.000
    C743     C        0.19510    0.49615    0.33080    1.000
    C744     C        0.19290    0.47241    0.30910    1.000
    H287     H        0.19260    0.46960    0.26750    1.000
    C745     C        0.19110    0.45216    0.34900    1.000
    C746     C        0.19040    0.45677    0.41110    1.000
    H288     H        0.19020    0.44350    0.43810    1.000
    C747     C        0.23490    0.46422    0.64530    1.000
    C748     C        0.04510    0.51988    0.73670    1.000
    C749     C        0.07870    0.58481    0.58280    1.000
    C750     C        0.19990    0.51748    0.28830    1.000
    C751     C        0.18790    0.42670    0.32540    1.000
    O336     O        0.97820    0.46170    0.93900    1.000
    C752     C        0.99410    0.44200    0.92190    1.000
    O337     O        0.75000    0.75000    0.61210    1.000
    O338     O        0.75000    0.25000    0.11210    1.000
    O339     O        0.25000    0.25000    0.61210    1.000
    O340     O        0.25000    0.75000    0.11210    1.000
    O341     O        0.00000    0.50000    0.86210    1.000
    O342     O        0.00000    0.00000    0.36210    1.000
    O343     O        0.50000    0.50000    0.36210    1.000
    O344     O        0.50000    0.00000    0.86210    1.000
