# CIF file generated by openbabel 3.1.0, see https://openbabel.org
data_I
_chemical_name_common 'MIFGEP01_clean'
_cell_length_a 8.986
_cell_length_b 14.915
_cell_length_c 26.759
_cell_angle_alpha 96.272
_cell_angle_beta 90
_cell_angle_gamma 90
_space_group_name_H-M_alt 'P 1'
_space_group_name_Hall 'P 1'
loop_
    _symmetry_equiv_pos_as_xyz
    x,y,z
loop_
    _atom_site_label
    _atom_site_type_symbol
    _atom_site_fract_x
    _atom_site_fract_y
    _atom_site_fract_z
    _atom_site_occupancy
    Cd1      Cd       0.81224    0.55884    0.85852    1.000
    Cd2      Cd       0.68776    0.05884    0.35852    1.000
    H1       H        0.40210    0.68230    0.97500    1.000
    H2       H        0.25750    0.79820    0.01250    1.000
    H3       H        0.46520    0.97090    0.93080    1.000
    H4       H        0.60840    0.85380    0.89320    1.000
    H5       H        0.23160    0.92160    0.06820    1.000
    H6       H        0.03190    0.16160    0.06580    1.000
    H7       H        0.25560    0.05120    0.94470    1.000
    H8       H        0.22970    0.97120    0.15640    1.000
    H9       H        0.12520    0.96490    0.23450    1.000
    H10      H        0.75870    0.08680    0.19070    1.000
    H11      H        0.86320    0.09590    0.11330    1.000
    H12      H        0.09150    0.29100    0.03550    1.000
    H13      H        0.07680    0.13160    0.90490    1.000
    H14      H        0.99700    0.40880    0.99590    1.000
    H15      H        0.98220    0.24910    0.86550    1.000
    H16      H        0.09790    0.18230    0.47500    1.000
    H17      H        0.24250    0.29820    0.51250    1.000
    H18      H        0.03480    0.47090    0.43080    1.000
    H19      H        0.89160    0.35380    0.39320    1.000
    H20      H        0.26840    0.42160    0.56820    1.000
    H21      H        0.46810    0.66160    0.56580    1.000
    H22      H        0.24440    0.55120    0.44470    1.000
    H23      H        0.27030    0.47120    0.65640    1.000
    H24      H        0.37480    0.46490    0.73450    1.000
    H25      H        0.74130    0.58680    0.69070    1.000
    H26      H        0.63680    0.59590    0.61330    1.000
    H27      H        0.40850    0.79100    0.53550    1.000
    H28      H        0.42320    0.63160    0.40490    1.000
    H29      H        0.50300    0.90880    0.49590    1.000
    H30      H        0.51780    0.74910    0.36550    1.000
    C1       C        0.52170    0.75625    0.93096    1.000
    C2       C        0.41550    0.74050    0.96630    1.000
    C3       C        0.32880    0.81007    0.98891    1.000
    C4       C        0.34750    0.89783    0.97659    1.000
    C5       C        0.45270    0.91307    0.94008    1.000
    C6       C        0.53880    0.84281    0.91749    1.000
    C7       C        0.25780    0.97399    0.00241    1.000
    C8       C        0.20770    0.97096    0.05124    1.000
    C9       C        0.12150    0.04101    0.07548    1.000
    C10      C        0.08850    0.11470    0.04992    1.000
    C11      C        0.13820    0.12004    0.00100    1.000
    C12      C        0.22250    0.04881    0.97744    1.000
    C13      C        0.05860    0.03560    0.12614    1.000
    C14      C        0.13550    0.99531    0.16320    1.000
    C15      C        0.07220    0.99106    0.21003    1.000
    C16      C        0.93110    0.02519    0.22095    1.000
    C17      C        0.85390    0.06405    0.18402    1.000
    C18      C        0.91660    0.06933    0.13760    1.000
    C19      C        0.09130    0.19759    0.97470    1.000
    C20      C        0.06860    0.28204    0.00142    1.000
    C21      C        0.05970    0.18702    0.92351    1.000
    C22      C        0.01200    0.35287    0.97757    1.000
    C23      C        0.97780    0.34116    0.92684    1.000
    C24      C        0.00320    0.25757    0.89968    1.000
    C25      C        0.91820    0.41715    0.90130    1.000
    C26      C        0.86100    0.02379    0.27209    1.000
    C27      C        0.61990    0.68200    0.90704    1.000
    C28      C        0.97830    0.25625    0.43096    1.000
    C29      C        0.08450    0.24050    0.46630    1.000
    C30      C        0.17120    0.31007    0.48891    1.000
    C31      C        0.15250    0.39783    0.47659    1.000
    C32      C        0.04730    0.41307    0.44008    1.000
    C33      C        0.96120    0.34281    0.41749    1.000
    C34      C        0.24220    0.47399    0.50241    1.000
    C35      C        0.29230    0.47096    0.55124    1.000
    C36      C        0.37850    0.54101    0.57548    1.000
    C37      C        0.41150    0.61470    0.54992    1.000
    C38      C        0.36180    0.62004    0.50100    1.000
    C39      C        0.27750    0.54881    0.47744    1.000
    C40      C        0.44140    0.53560    0.62614    1.000
    C41      C        0.36450    0.49531    0.66320    1.000
    C42      C        0.42780    0.49106    0.71003    1.000
    C43      C        0.56890    0.52519    0.72095    1.000
    C44      C        0.64610    0.56405    0.68402    1.000
    C45      C        0.58340    0.56933    0.63760    1.000
    C46      C        0.40870    0.69759    0.47470    1.000
    C47      C        0.43140    0.78204    0.50142    1.000
    C48      C        0.44030    0.68702    0.42351    1.000
    C49      C        0.48800    0.85287    0.47757    1.000
    C50      C        0.52220    0.84116    0.42684    1.000
    C51      C        0.49680    0.75757    0.39968    1.000
    C52      C        0.58180    0.91715    0.40130    1.000
    C53      C        0.63900    0.52379    0.77209    1.000
    C54      C        0.88010    0.18200    0.40704    1.000
    O1       O        0.72140    0.70072    0.87832    1.000
    O2       O        0.59700    0.60182    0.91719    1.000
    O3       O        0.93190    0.99582    0.30637    1.000
    O4       O        0.73030    0.05406    0.27693    1.000
    O5       O        0.88360    0.40498    0.85615    1.000
    O6       O        0.90370    0.49342    0.92625    1.000
    O7       O        0.77860    0.20072    0.37832    1.000
    O8       O        0.90300    0.10182    0.41719    1.000
    O9       O        0.56810    0.49582    0.80637    1.000
    O10      O        0.76970    0.55406    0.77693    1.000
    O11      O        0.61640    0.90498    0.35615    1.000
    O12      O        0.59630    0.99342    0.42625    1.000
    Cd3      Cd       0.31224    0.94116    0.64148    1.000
    Cd4      Cd       0.18776    0.44116    0.14149    1.000
    H31      H        0.90210    0.81770    0.52500    1.000
    H32      H        0.75750    0.70180    0.48750    1.000
    H33      H        0.96520    0.52910    0.56920    1.000
    H34      H        0.10840    0.64620    0.60680    1.000
    H35      H        0.73160    0.57840    0.43180    1.000
    H36      H        0.53190    0.33840    0.43420    1.000
    H37      H        0.75560    0.44880    0.55530    1.000
    H38      H        0.72970    0.52880    0.34360    1.000
    H39      H        0.62520    0.53510    0.26550    1.000
    H40      H        0.25870    0.41320    0.30930    1.000
    H41      H        0.36320    0.40410    0.38670    1.000
    H42      H        0.59150    0.20900    0.46450    1.000
    H43      H        0.57680    0.36840    0.59510    1.000
    H44      H        0.49700    0.09120    0.50410    1.000
    H45      H        0.48220    0.25090    0.63450    1.000
    H46      H        0.59790    0.31770    0.02500    1.000
    H47      H        0.74250    0.20180    0.98750    1.000
    H48      H        0.53480    0.02910    0.06920    1.000
    H49      H        0.39160    0.14620    0.10680    1.000
    H50      H        0.76840    0.07840    0.93180    1.000
    H51      H        0.96810    0.83840    0.93420    1.000
    H52      H        0.74440    0.94880    0.05530    1.000
    H53      H        0.77030    0.02880    0.84360    1.000
    H54      H        0.87480    0.03510    0.76550    1.000
    H55      H        0.24130    0.91320    0.80930    1.000
    H56      H        0.13680    0.90410    0.88670    1.000
    H57      H        0.90850    0.70900    0.96450    1.000
    H58      H        0.92320    0.86840    0.09510    1.000
    H59      H        0.00300    0.59120    0.00410    1.000
    H60      H        0.01780    0.75090    0.13450    1.000
    C55      C        0.02170    0.74375    0.56904    1.000
    C56      C        0.91550    0.75950    0.53370    1.000
    C57      C        0.82880    0.68993    0.51109    1.000
    C58      C        0.84750    0.60217    0.52341    1.000
    C59      C        0.95270    0.58693    0.55992    1.000
    C60      C        0.03880    0.65719    0.58251    1.000
    C61      C        0.75780    0.52601    0.49759    1.000
    C62      C        0.70770    0.52904    0.44876    1.000
    C63      C        0.62150    0.45899    0.42452    1.000
    C64      C        0.58850    0.38530    0.45008    1.000
    C65      C        0.63820    0.37996    0.49900    1.000
    C66      C        0.72250    0.45119    0.52256    1.000
    C67      C        0.55860    0.46440    0.37386    1.000
    C68      C        0.63550    0.50469    0.33680    1.000
    C69      C        0.57220    0.50894    0.28997    1.000
    C70      C        0.43110    0.47481    0.27905    1.000
    C71      C        0.35390    0.43595    0.31598    1.000
    C72      C        0.41660    0.43067    0.36240    1.000
    C73      C        0.59130    0.30241    0.52530    1.000
    C74      C        0.56860    0.21796    0.49858    1.000
    C75      C        0.55970    0.31298    0.57649    1.000
    C76      C        0.51200    0.14713    0.52243    1.000
    C77      C        0.47780    0.15884    0.57316    1.000
    C78      C        0.50320    0.24243    0.60032    1.000
    C79      C        0.41820    0.08285    0.59870    1.000
    C80      C        0.36100    0.47621    0.22791    1.000
    C81      C        0.11990    0.81800    0.59296    1.000
    C82      C        0.47830    0.24375    0.06904    1.000
    C83      C        0.58450    0.25950    0.03370    1.000
    C84      C        0.67120    0.18993    0.01109    1.000
    C85      C        0.65250    0.10217    0.02341    1.000
    C86      C        0.54730    0.08693    0.05992    1.000
    C87      C        0.46120    0.15719    0.08251    1.000
    C88      C        0.74220    0.02601    0.99759    1.000
    C89      C        0.79230    0.02904    0.94876    1.000
    C90      C        0.87850    0.95899    0.92452    1.000
    C91      C        0.91150    0.88530    0.95008    1.000
    C92      C        0.86180    0.87996    0.99900    1.000
    C93      C        0.77750    0.95119    0.02256    1.000
    C94      C        0.94140    0.96440    0.87386    1.000
    C95      C        0.86450    0.00469    0.83680    1.000
    C96      C        0.92780    0.00894    0.78997    1.000
    C97      C        0.06890    0.97481    0.77905    1.000
    C98      C        0.14610    0.93595    0.81598    1.000
    C99      C        0.08340    0.93067    0.86240    1.000
    C100     C        0.90870    0.80241    0.02530    1.000
    C101     C        0.93140    0.71796    0.99858    1.000
    C102     C        0.94030    0.81298    0.07649    1.000
    C103     C        0.98800    0.64713    0.02243    1.000
    C104     C        0.02220    0.65884    0.07316    1.000
    C105     C        0.99680    0.74243    0.10032    1.000
    C106     C        0.08180    0.58285    0.09870    1.000
    C107     C        0.13900    0.97621    0.72791    1.000
    C108     C        0.38010    0.31800    0.09296    1.000
    O13      O        0.22140    0.79928    0.62168    1.000
    O14      O        0.09700    0.89818    0.58281    1.000
    O15      O        0.43190    0.50418    0.19363    1.000
    O16      O        0.23030    0.44594    0.22307    1.000
    O17      O        0.38360    0.09502    0.64385    1.000
    O18      O        0.40370    0.00658    0.57375    1.000
    O19      O        0.27860    0.29928    0.12168    1.000
    O20      O        0.40300    0.39818    0.08281    1.000
    O21      O        0.06810    0.00418    0.69363    1.000
    O22      O        0.26970    0.94594    0.72307    1.000
    O23      O        0.11640    0.59502    0.14385    1.000
    O24      O        0.09630    0.50658    0.07375    1.000
