# CIF file generated by openbabel 3.1.0, see https://openbabel.org
data_I
_chemical_name_common 'YAPSAL_charged'
_cell_length_a 17.4843
_cell_length_b 17.4843
_cell_length_c 22.5856
_cell_angle_alpha 90
_cell_angle_beta 90
_cell_angle_gamma 120
_space_group_name_H-M_alt 'P 1'
_space_group_name_Hall 'P 1'
loop_
    _symmetry_equiv_pos_as_xyz
    x,y,z
loop_
    _atom_site_label
    _atom_site_type_symbol
    _atom_site_fract_x
    _atom_site_fract_y
    _atom_site_fract_z
    _atom_site_occupancy
    Sr1      Sr       0.58079    0.25492    0.71229    1.000
    Sr2      Sr       0.67413    0.41921    0.04562    1.000
    Sr3      Sr       0.74508    0.32587    0.37896    1.000
    H1       H        0.43710    0.18270    0.99260    1.000
    H2       H        0.00400    0.76790    0.94170    1.000
    H3       H        0.12830    0.17490    0.93660    1.000
    H4       H        0.95350    0.19880    0.97480    1.000
    H5       H        0.65980    0.58820    0.94060    1.000
    H6       H        0.94610    0.06120    0.82520    1.000
    H7       H        0.04920    0.23470    0.87510    1.000
    H8       H        0.05550    0.91320    0.88530    1.000
    H9       H        0.41200    0.53030    0.73450    1.000
    H10      H        0.50070    0.54570    0.76640    1.000
    H11      H        0.21030    0.59770    0.94430    1.000
    H12      H        0.93850    0.07110    0.93660    1.000
    H13      H        0.77060    0.29600    0.85510    1.000
    H14      H        0.03480    0.52120    0.89830    1.000
    H15      H        0.06980    0.28680    0.75620    1.000
    H16      H        0.29570    0.84680    0.95420    1.000
    H17      H        0.89750    0.65440    0.88340    1.000
    H18      H        0.29960    0.87330    0.83800    1.000
    H19      H        0.65500    0.43340    0.89320    1.000
    H20      H        0.88920    0.83940    0.94690    1.000
    H21      H        0.80470    0.18680    0.93490    1.000
    H22      H        0.28160    0.04060    0.91100    1.000
    H23      H        0.10860    0.11150    0.01680    1.000
    H24      H        0.52530    0.40040    0.84430    1.000
    H25      H        0.40620    0.13150    0.88600    1.000
    H26      H        0.64950    0.63430    0.83920    1.000
    H27      H        0.52580    0.10340    0.95760    1.000
    H28      H        0.77400    0.57280    0.85550    1.000
    H29      H        0.91630    0.36060    0.88940    1.000
    H30      H        0.17850    0.91700    0.96220    1.000
    H31      H        0.68210    0.64860    0.73940    1.000
    H32      H        0.77210    0.70880    0.77460    1.000
    H33      H        0.98600    0.29610    0.83510    1.000
    H34      H        0.65720    0.29590    0.86360    1.000
    H35      H        0.53630    0.26730    0.92330    1.000
    H36      H        0.25970    0.32210    0.89530    1.000
    H37      H        0.40370    0.54870    0.83910    1.000
    H38      H        0.07570    0.65630    0.85280    1.000
    H39      H        0.12820    0.78080    0.89320    1.000
    H40      H        0.40570    0.38680    0.85320    1.000
    H41      H        0.02450    0.13030    0.73580    1.000
    H42      H        0.95990    0.16560    0.75610    1.000
    H43      H        0.11970    0.05030    0.88920    1.000
    H44      H        0.97330    0.93510    0.76820    1.000
    H45      H        0.04580    0.90610    0.77780    1.000
    H46      H        0.38250    0.49290    0.94070    1.000
    H47      H        0.88030    0.83470    0.83510    1.000
    H48      H        0.18070    0.38050    0.85100    1.000
    H49      H        0.18730    0.77290    0.77240    1.000
    H50      H        0.12630    0.81430    0.78890    1.000
    H51      H        0.39200    0.00410    0.78830    1.000
    H52      H        0.40030    0.09900    0.78020    1.000
    H53      H        0.26860    0.64950    0.83730    1.000
    H54      H        0.73940    0.14230    0.73690    1.000
    H55      H        0.65680    0.12070    0.77820    1.000
    H56      H        0.13380    0.46520    0.85310    1.000
    H57      H        0.24390    0.61320    0.73450    1.000
    H58      H        0.29270    0.56920    0.76820    1.000
    H59      H        0.76510    0.13010    0.83760    1.000
    H60      H        0.84380    0.68610    0.98560    1.000
    H61      H        0.76350    0.56420    0.76120    1.000
    H62      H        0.21830    0.77090    0.02000    1.000
    H63      H        0.00750    0.30660    0.93640    1.000
    H64      H        0.83250    0.33810    0.97470    1.000
    H65      H        0.12650    0.46170    0.76860    1.000
    H66      H        0.11040    0.65600    0.97230    1.000
    H67      H        0.46910    0.42210    0.73470    1.000
    H68      H        0.07800    0.43630    0.95770    1.000
    H69      H        0.26260    0.99980    0.02530    1.000
    H70      H        0.02710    0.94710    0.98800    1.000
    H71      H        0.35670    0.37280    0.99590    1.000
    H72      H        0.92810    0.77310    0.74000    1.000
    H73      H        0.21850    0.41070    0.97160    1.000
    H74      H        0.51880    0.06420    0.84720    1.000
    H75      H        0.19820    0.87600    0.70740    1.000
    H76      H        0.74560    0.56290    0.32593    1.000
    H77      H        0.76390    0.99600    0.27503    1.000
    H78      H        0.04660    0.87170    0.26993    1.000
    H79      H        0.24530    0.04650    0.30813    1.000
    H80      H        0.92840    0.34020    0.27393    1.000
    H81      H        0.11510    0.05390    0.15853    1.000
    H82      H        0.18550    0.95080    0.20843    1.000
    H83      H        0.85770    0.94450    0.21863    1.000
    H84      H        0.11830    0.58800    0.06783    1.000
    H85      H        0.04500    0.49930    0.09973    1.000
    H86      H        0.38740    0.78970    0.27763    1.000
    H87      H        0.13260    0.06150    0.26993    1.000
    H88      H        0.52540    0.22940    0.18843    1.000
    H89      H        0.48640    0.96520    0.23163    1.000
    H90      H        0.21700    0.93020    0.08953    1.000
    H91      H        0.55110    0.70430    0.28753    1.000
    H92      H        0.75690    0.10250    0.21673    1.000
    H93      H        0.57370    0.70040    0.17133    1.000
    H94      H        0.77840    0.34500    0.22653    1.000
    H95      H        0.95020    0.11080    0.28023    1.000
    H96      H        0.38210    0.19530    0.26823    1.000
    H97      H        0.75900    0.71840    0.24433    1.000
    H98      H        0.00290    0.89140    0.35013    1.000
    H99      H        0.87510    0.47470    0.17763    1.000
    H100     H        0.72530    0.59380    0.21933    1.000
    H101     H        0.98480    0.35050    0.17253    1.000
    H102     H        0.57760    0.47420    0.29093    1.000
    H103     H        0.79880    0.22600    0.18883    1.000
    H104     H        0.44430    0.08370    0.22273    1.000
    H105     H        0.73850    0.82150    0.29553    1.000
    H106     H        0.96650    0.31790    0.07273    1.000
    H107     H        0.93670    0.22790    0.10793    1.000
    H108     H        0.31010    0.01400    0.16843    1.000
    H109     H        0.63870    0.34280    0.19693    1.000
    H110     H        0.73100    0.46370    0.25663    1.000
    H111     H        0.06240    0.74030    0.22863    1.000
    H112     H        0.14500    0.59630    0.17243    1.000
    H113     H        0.58060    0.92430    0.18613    1.000
    H114     H        0.65260    0.87180    0.22653    1.000
    H115     H        0.98110    0.59430    0.18653    1.000
    H116     H        0.10580    0.97550    0.06913    1.000
    H117     H        0.20570    0.04010    0.08943    1.000
    H118     H        0.93060    0.88030    0.22253    1.000
    H119     H        0.96180    0.02670    0.10153    1.000
    H120     H        0.86030    0.95420    0.11113    1.000
    H121     H        0.11040    0.61750    0.27403    1.000
    H122     H        0.95440    0.11970    0.16843    1.000
    H123     H        0.19980    0.81930    0.18433    1.000
    H124     H        0.58560    0.81270    0.10573    1.000
    H125     H        0.68800    0.87370    0.12223    1.000
    H126     H        0.61210    0.60800    0.12163    1.000
    H127     H        0.69870    0.59970    0.11353    1.000
    H128     H        0.38090    0.73140    0.17063    1.000
    H129     H        0.40290    0.26060    0.07023    1.000
    H130     H        0.46390    0.34320    0.11153    1.000
    H131     H        0.33140    0.86620    0.18643    1.000
    H132     H        0.36930    0.75610    0.06783    1.000
    H133     H        0.27650    0.70730    0.10153    1.000
    H134     H        0.36500    0.23490    0.17093    1.000
    H135     H        0.84230    0.15620    0.31893    1.000
    H136     H        0.80070    0.23650    0.09453    1.000
    H137     H        0.55260    0.78170    0.35333    1.000
    H138     H        0.29910    0.99250    0.26973    1.000
    H139     H        0.50560    0.16750    0.30803    1.000
    H140     H        0.33520    0.87350    0.10193    1.000
    H141     H        0.54560    0.88960    0.30563    1.000
    H142     H        0.95300    0.53090    0.06803    1.000
    H143     H        0.35830    0.92200    0.29103    1.000
    H144     H        0.73720    0.73740    0.35863    1.000
    H145     H        0.92000    0.97290    0.32133    1.000
    H146     H        0.01610    0.64330    0.32923    1.000
    H147     H        0.84500    0.07190    0.07333    1.000
    H148     H        0.19220    0.78150    0.30493    1.000
    H149     H        0.54540    0.48120    0.18053    1.000
    H150     H        0.67780    0.80180    0.04073    1.000
    H151     H        0.81730    0.25440    0.65927    1.000
    H152     H        0.23210    0.23610    0.60837    1.000
    H153     H        0.82510    0.95340    0.60327    1.000
    H154     H        0.80120    0.75470    0.64147    1.000
    H155     H        0.41180    0.07160    0.60727    1.000
    H156     H        0.93880    0.88490    0.49187    1.000
    H157     H        0.76530    0.81450    0.54177    1.000
    H158     H        0.08680    0.14230    0.55197    1.000
    H159     H        0.46970    0.88170    0.40117    1.000
    H160     H        0.45430    0.95500    0.43307    1.000
    H161     H        0.40230    0.61260    0.61097    1.000
    H162     H        0.92890    0.86740    0.60327    1.000
    H163     H        0.70400    0.47460    0.52177    1.000
    H164     H        0.47880    0.51360    0.56497    1.000
    H165     H        0.71320    0.78300    0.42287    1.000
    H166     H        0.15320    0.44890    0.62087    1.000
    H167     H        0.34560    0.24310    0.55007    1.000
    H168     H        0.12670    0.42630    0.50467    1.000
    H169     H        0.56660    0.22160    0.55987    1.000
    H170     H        0.16060    0.04980    0.61357    1.000
    H171     H        0.81320    0.61790    0.60157    1.000
    H172     H        0.95940    0.24100    0.57767    1.000
    H173     H        0.88850    0.99710    0.68347    1.000
    H174     H        0.59960    0.12490    0.51097    1.000
    H175     H        0.86850    0.27470    0.55267    1.000
    H176     H        0.36570    0.01520    0.50587    1.000
    H177     H        0.89660    0.42240    0.62427    1.000
    H178     H        0.42720    0.20120    0.52217    1.000
    H179     H        0.63940    0.55570    0.55607    1.000
    H180     H        0.08300    0.26150    0.62887    1.000
    H181     H        0.35140    0.03350    0.40607    1.000
    H182     H        0.29120    0.06330    0.44127    1.000
    H183     H        0.70390    0.68990    0.50177    1.000
    H184     H        0.70410    0.36130    0.53027    1.000
    H185     H        0.73270    0.26900    0.58997    1.000
    H186     H        0.67790    0.93760    0.56197    1.000
    H187     H        0.45130    0.85500    0.50577    1.000
    H188     H        0.34370    0.41940    0.51947    1.000
    H189     H        0.21920    0.34740    0.55987    1.000
    H190     H        0.61320    0.01890    0.51987    1.000
    H191     H        0.86970    0.89420    0.40247    1.000
    H192     H        0.83440    0.79430    0.42277    1.000
    H193     H        0.94970    0.06940    0.55587    1.000
    H194     H        0.06490    0.03820    0.43487    1.000
    H195     H        0.09390    0.13970    0.44447    1.000
    H196     H        0.50710    0.88960    0.60737    1.000
    H197     H        0.16530    0.04560    0.50177    1.000
    H198     H        0.61950    0.80020    0.51767    1.000
    H199     H        0.22710    0.41440    0.43907    1.000
    H200     H        0.18570    0.31200    0.45557    1.000
    H201     H        0.99590    0.38790    0.45497    1.000
    H202     H        0.90100    0.30130    0.44687    1.000
    H203     H        0.35050    0.61910    0.50397    1.000
    H204     H        0.85770    0.59710    0.40357    1.000
    H205     H        0.87930    0.53610    0.44487    1.000
    H206     H        0.53480    0.66860    0.51977    1.000
    H207     H        0.38680    0.63070    0.40117    1.000
    H208     H        0.43080    0.72350    0.43487    1.000
    H209     H        0.86990    0.63500    0.50427    1.000
    H210     H        0.31390    0.15770    0.65227    1.000
    H211     H        0.43580    0.19930    0.42787    1.000
    H212     H        0.22910    0.44740    0.68667    1.000
    H213     H        0.69340    0.70090    0.60307    1.000
    H214     H        0.66190    0.49440    0.64137    1.000
    H215     H        0.53830    0.66480    0.43527    1.000
    H216     H        0.34400    0.45440    0.63897    1.000
    H217     H        0.57790    0.04700    0.40137    1.000
    H218     H        0.56370    0.64170    0.62437    1.000
    H219     H        0.00020    0.26280    0.69197    1.000
    H220     H        0.05290    0.08000    0.65467    1.000
    H221     H        0.62720    0.98390    0.66257    1.000
    H222     H        0.22690    0.15500    0.40667    1.000
    H223     H        0.58930    0.80780    0.63827    1.000
    H224     H        0.93580    0.45460    0.51387    1.000
    H225     H        0.12400    0.32220    0.37407    1.000
    C1       C        0.94290    0.75900    0.94200    1.000
    C2       C        0.07270    0.11630    0.93870    1.000
    C3       C        0.69050    0.55700    0.92520    1.000
    C4       C        0.00190    0.11970    0.82610    1.000
    C5       C        0.99690    0.17370    0.87620    1.000
    C6       C        0.99270    0.89950    0.88750    1.000
    C7       C        0.43640    0.50450    0.76260    1.000
    C8       C        0.15700    0.54550    0.92730    1.000
    C9       C        0.99360    0.13020    0.93530    1.000
    C10      C        0.75450    0.23590    0.86990    1.000
    C11      C        0.08970    0.57430    0.91270    1.000
    C12      C        0.23460    0.83790    0.95320    1.000
    C13      C        0.89670    0.71120    0.88540    1.000
    C14      C        0.23810    0.86230    0.84240    1.000
    C15      C        0.62240    0.46300    0.90810    1.000
    C16      C        0.94990    0.84780    0.94360    1.000
    C17      C        0.81480    0.24620    0.92300    1.000
    C18      C        0.28470    0.98520    0.90660    1.000
    C19      C        0.56410    0.46260    0.85810    1.000
    C20      C        0.43710    0.09760    0.89450    1.000
    C21      C        0.68100    0.60400    0.82340    1.000
    C22      C        0.49660    0.13840    0.94750    1.000
    C23      C        0.74380    0.60450    0.87090    1.000
    C24      C        0.90880    0.30300    0.90330    1.000
    C25      C        0.24010    0.92740    0.96000    1.000
    C26      C        0.72580    0.64700    0.76650    1.000
    C27      C        0.92460    0.25730    0.85010    1.000
    C28      C        0.61550    0.23330    0.87510    1.000
    C29      C        0.56690    0.23290    0.93130    1.000
    C30      C        0.27100    0.38070    0.91040    1.000
    C31      C        0.39140    0.49020    0.82320    1.000
    C32      C        0.12320    0.64270    0.86340    1.000
    C33      C        0.19170    0.79690    0.89240    1.000
    C34      C        0.42010    0.44620    0.86850    1.000
    C35      C        0.01440    0.16460    0.76660    1.000
    C36      C        0.06890    0.06110    0.88670    1.000
    C37      C        0.98150    0.88390    0.77580    1.000
    C38      C        0.36840    0.43380    0.92490    1.000
    C39      C        0.94200    0.84540    0.83370    1.000
    C40      C        0.24380    0.42140    0.86190    1.000
    C41      C        0.18820    0.82800    0.78390    1.000
    C42      C        0.43440    0.06810    0.78470    1.000
    C43      C        0.21540    0.59500    0.82240    1.000
    C44      C        0.71770    0.16690    0.76780    1.000
    C45      C        0.18530    0.52000    0.86930    1.000
    C46      C        0.23600    0.56880    0.76470    1.000
    C47      C        0.77420    0.18710    0.82090    1.000
    C48      C        0.48980    0.10020    0.83990    1.000
    C49      C        0.81610    0.05710    0.27533    1.000
    C50      C        0.04360    0.92730    0.27203    1.000
    C51      C        0.86650    0.30950    0.25853    1.000
    C52      C        0.11780    0.99810    0.15943    1.000
    C53      C        0.17680    0.00310    0.20953    1.000
    C54      C        0.90680    0.00730    0.22083    1.000
    C55      C        0.06810    0.56360    0.09593    1.000
    C56      C        0.38850    0.84300    0.26063    1.000
    C57      C        0.13660    0.00640    0.26863    1.000
    C58      C        0.48140    0.24550    0.20323    1.000
    C59      C        0.48460    0.91030    0.24603    1.000
    C60      C        0.60330    0.76540    0.28653    1.000
    C61      C        0.81450    0.10330    0.21873    1.000
    C62      C        0.62420    0.76190    0.17573    1.000
    C63      C        0.84060    0.37760    0.24143    1.000
    C64      C        0.89790    0.05010    0.27693    1.000
    C65      C        0.43140    0.18520    0.25633    1.000
    C66      C        0.70050    0.71530    0.23993    1.000
    C67      C        0.89850    0.43590    0.19143    1.000
    C68      C        0.66050    0.56290    0.22783    1.000
    C69      C        0.92300    0.31900    0.15673    1.000
    C70      C        0.64180    0.50340    0.28083    1.000
    C71      C        0.86070    0.25620    0.20423    1.000
    C72      C        0.39420    0.09120    0.23663    1.000
    C73      C        0.68730    0.75990    0.29333    1.000
    C74      C        0.92120    0.27420    0.09983    1.000
    C75      C        0.33270    0.07540    0.18343    1.000
    C76      C        0.61780    0.38450    0.20843    1.000
    C77      C        0.66600    0.43310    0.26463    1.000
    C78      C        0.10970    0.72900    0.24373    1.000
    C79      C        0.09880    0.60860    0.15653    1.000
    C80      C        0.51950    0.87680    0.19673    1.000
    C81      C        0.60520    0.80830    0.22573    1.000
    C82      C        0.02610    0.57990    0.20183    1.000
    C83      C        0.15020    0.98560    0.09993    1.000
    C84      C        0.99220    0.93110    0.22003    1.000
    C85      C        0.90240    0.01850    0.10913    1.000
    C86      C        0.06540    0.63160    0.25823    1.000
    C87      C        0.90340    0.05800    0.16703    1.000
    C88      C        0.17760    0.75620    0.19523    1.000
    C89      C        0.63980    0.81180    0.11723    1.000
    C90      C        0.63370    0.56560    0.11803    1.000
    C91      C        0.37960    0.78460    0.15573    1.000
    C92      C        0.44920    0.28230    0.10113    1.000
    C93      C        0.33470    0.81470    0.20263    1.000
    C94      C        0.33280    0.76400    0.09803    1.000
    C95      C        0.41290    0.22580    0.15423    1.000
    C96      C        0.61040    0.51020    0.17323    1.000
    C97      C        0.24100    0.18390    0.60867    1.000
    C98      C        0.88370    0.95640    0.60537    1.000
    C99      C        0.44300    0.13350    0.59187    1.000
    C100     C        0.88030    0.88220    0.49277    1.000
    C101     C        0.82630    0.82320    0.54287    1.000
    C102     C        0.10050    0.09320    0.55417    1.000
    C103     C        0.49550    0.93190    0.42927    1.000
    C104     C        0.45450    0.61150    0.59397    1.000
    C105     C        0.86980    0.86340    0.60197    1.000
    C106     C        0.76410    0.51860    0.53657    1.000
    C107     C        0.42570    0.51540    0.57937    1.000
    C108     C        0.16210    0.39670    0.61987    1.000
    C109     C        0.28880    0.18550    0.55207    1.000
    C110     C        0.13770    0.37580    0.50907    1.000
    C111     C        0.53700    0.15940    0.57477    1.000
    C112     C        0.15220    0.10210    0.61027    1.000
    C113     C        0.75380    0.56860    0.58967    1.000
    C114     C        0.01480    0.29950    0.57327    1.000
    C115     C        0.53740    0.10150    0.52477    1.000
    C116     C        0.90240    0.33950    0.56117    1.000
    C117     C        0.39600    0.07700    0.49007    1.000
    C118     C        0.86160    0.35820    0.61417    1.000
    C119     C        0.39550    0.13930    0.53757    1.000
    C120     C        0.69700    0.60580    0.56997    1.000
    C121     C        0.07260    0.31270    0.62667    1.000
    C122     C        0.35300    0.07880    0.43317    1.000
    C123     C        0.74270    0.66730    0.51677    1.000
    C124     C        0.76670    0.38220    0.54177    1.000
    C125     C        0.76710    0.33400    0.59797    1.000
    C126     C        0.61930    0.89030    0.57707    1.000
    C127     C        0.50980    0.90120    0.48987    1.000
    C128     C        0.35730    0.48050    0.53007    1.000
    C129     C        0.20310    0.39480    0.55907    1.000
    C130     C        0.55380    0.97390    0.53517    1.000
    C131     C        0.83540    0.84980    0.43327    1.000
    C132     C        0.93890    0.00780    0.55337    1.000
    C133     C        0.11610    0.09760    0.44247    1.000
    C134     C        0.56620    0.93460    0.59157    1.000
    C135     C        0.15460    0.09660    0.50037    1.000
    C136     C        0.57860    0.82240    0.52857    1.000
    C137     C        0.17200    0.36020    0.45057    1.000
    C138     C        0.93190    0.36630    0.45137    1.000
    C139     C        0.40500    0.62040    0.48907    1.000
    C140     C        0.83310    0.55080    0.43447    1.000
    C141     C        0.48000    0.66530    0.53597    1.000
    C142     C        0.43120    0.66720    0.43137    1.000
    C143     C        0.81290    0.58710    0.48757    1.000
    C144     C        0.89980    0.38960    0.50657    1.000
    O1       O        0.55660    0.19130    0.82830    1.000
    O2       O        0.86430    0.23880    0.80300    1.000
    O3       O        0.91700    0.17750    0.87110    1.000
    O4       O        0.07490    0.10540    0.83300    1.000
    O5       O        0.55100    0.37220    0.65840    1.000
    O6       O        0.44880    0.14190    0.99730    1.000
    O7       O        0.66460    0.19190    0.88780    1.000
    O8       O        0.99060    0.18310    0.98270    1.000
    O9       O        0.67810    0.39720    0.76800    1.000
    O10      O        0.46310    0.28060    0.76400    1.000
    O11      O        0.08660    0.25190    0.76770    1.000
    O12      O        0.07070    0.07420    0.99360    1.000
    O13      O        0.71530    0.24120    0.74400    1.000
    O14      O        0.89830    0.70640    0.98990    1.000
    O15      O        0.76470    0.60260    0.73820    1.000
    O16      O        0.61790    0.51480    0.80940    1.000
    O17      O        0.80850    0.69160    0.88740    1.000
    O18      O        0.74290    0.55100    0.97040    1.000
    O19      O        0.93960    0.76160    0.83520    1.000
    O20      O        0.24030    0.94320    0.85380    1.000
    O21      O        0.18500    0.77950    0.99760    1.000
    O22      O        0.97050    0.32060    0.94800    1.000
    O23      O        0.62880    0.27590    0.97860    1.000
    O24      O        0.79330    0.28480    0.97130    1.000
    O25      O        0.98990    0.97970    0.88980    1.000
    O26      O        0.37270    0.00830    0.90730    1.000
    O27      O        0.16880    0.48270    0.74460    1.000
    O28      O        0.14590    0.61240    0.81320    1.000
    O29      O        0.19660    0.71970    0.88500    1.000
    O30      O        0.56930    0.41270    0.95730    1.000
    O31      O        0.25380    0.50190    0.88260    1.000
    O32      O        0.06700    0.60740    0.96220    1.000
    O33      O        0.51070    0.49510    0.88040    1.000
    O34      O        0.29910    0.43790    0.81060    1.000
    O35      O        0.42060    0.41980    0.74070    1.000
    O36      O        0.12740    0.47800    0.96830    1.000
    O37      O        0.28360    0.96920    0.01220    1.000
    O38      O        0.99840    0.89260    0.99470    1.000
    O39      O        0.48810    0.08370    0.73360    1.000
    O40      O        0.39260    0.38970    0.96760    1.000
    O41      O        0.94590    0.82480    0.72800    1.000
    O42      O        0.21500    0.36340    0.96010    1.000
    O43      O        0.22980    0.89270    0.73800    1.000
    O44      O        0.63470    0.44340    0.16163    1.000
    O45      O        0.37450    0.13570    0.13633    1.000
    O46      O        0.26050    0.08300    0.20443    1.000
    O47      O        0.03050    0.92510    0.16633    1.000
    O48      O        0.82120    0.44900    0.99173    1.000
    O49      O        0.69310    0.55120    0.33063    1.000
    O50      O        0.52730    0.33540    0.22113    1.000
    O51      O        0.19250    0.00940    0.31603    1.000
    O52      O        0.71910    0.32190    0.10133    1.000
    O53      O        0.81750    0.53690    0.09733    1.000
    O54      O        0.16530    0.91340    0.10103    1.000
    O55      O        0.00350    0.92930    0.32693    1.000
    O56      O        0.52590    0.28470    0.07733    1.000
    O57      O        0.80810    0.10170    0.32323    1.000
    O58      O        0.83790    0.23530    0.07153    1.000
    O59      O        0.89690    0.38210    0.14273    1.000
    O60      O        0.88310    0.19150    0.22073    1.000
    O61      O        0.80810    0.25710    0.30373    1.000
    O62      O        0.82200    0.06040    0.16853    1.000
    O63      O        0.70290    0.75970    0.18713    1.000
    O64      O        0.59450    0.81500    0.33093    1.000
    O65      O        0.35010    0.02950    0.28133    1.000
    O66      O        0.64710    0.37120    0.31193    1.000
    O67      O        0.49150    0.20670    0.30463    1.000
    O68      O        0.98980    0.01010    0.22313    1.000
    O69      O        0.63560    0.62730    0.24063    1.000
    O70      O        0.31390    0.83120    0.07793    1.000
    O71      O        0.46650    0.85410    0.14653    1.000
    O72      O        0.52310    0.80340    0.21833    1.000
    O73      O        0.84340    0.43070    0.29063    1.000
    O74      O        0.24810    0.74620    0.21593    1.000
    O75      O        0.54040    0.93300    0.29553    1.000
    O76      O        0.98440    0.48930    0.21373    1.000
    O77      O        0.13880    0.70090    0.14393    1.000
    O78      O        0.99920    0.57940    0.07403    1.000
    O79      O        0.35060    0.87260    0.30163    1.000
    O80      O        0.68560    0.71640    0.34553    1.000
    O81      O        0.89420    0.00160    0.32803    1.000
    O82      O        0.59560    0.51190    0.06693    1.000
    O83      O        0.99710    0.60740    0.30093    1.000
    O84      O        0.87890    0.05410    0.06133    1.000
    O85      O        0.14840    0.78500    0.29343    1.000
    O86      O        0.66290    0.77020    0.07133    1.000
    O87      O        0.80870    0.36530    0.49497    1.000
    O88      O        0.76120    0.62550    0.46967    1.000
    O89      O        0.82250    0.73950    0.53777    1.000
    O90      O        0.89460    0.96950    0.49967    1.000
    O91      O        0.62780    0.17880    0.32507    1.000
    O92      O        0.85810    0.30690    0.66397    1.000
    O93      O        0.80810    0.47270    0.55447    1.000
    O94      O        0.81690    0.80750    0.64937    1.000
    O95      O        0.60280    0.28090    0.43467    1.000
    O96      O        0.71940    0.18250    0.43067    1.000
    O97      O        0.74810    0.83470    0.43437    1.000
    O98      O        0.92580    0.99650    0.66027    1.000
    O99      O        0.75880    0.47410    0.41067    1.000
    O100     O        0.29360    0.19190    0.65657    1.000
    O101     O        0.39740    0.16210    0.40487    1.000
    O102     O        0.48520    0.10310    0.47607    1.000
    O103     O        0.30840    0.11690    0.55407    1.000
    O104     O        0.44900    0.19190    0.63707    1.000
    O105     O        0.23840    0.17800    0.50187    1.000
    O106     O        0.05680    0.29710    0.52047    1.000
    O107     O        0.22050    0.40550    0.66427    1.000
    O108     O        0.67940    0.64990    0.61467    1.000
    O109     O        0.72410    0.35290    0.64527    1.000
    O110     O        0.71520    0.50850    0.63797    1.000
    O111     O        0.02030    0.01020    0.55647    1.000
    O112     O        0.99170    0.36440    0.57397    1.000
    O113     O        0.51730    0.68610    0.41127    1.000
    O114     O        0.38760    0.53350    0.47987    1.000
    O115     O        0.28030    0.47690    0.55167    1.000
    O116     O        0.58730    0.15660    0.62397    1.000
    O117     O        0.49810    0.75190    0.54927    1.000
    O118     O        0.39260    0.45960    0.62887    1.000
    O119     O        0.50490    0.01560    0.54707    1.000
    O120     O        0.56210    0.86120    0.47727    1.000
    O121     O        0.58020    0.00080    0.40737    1.000
    O122     O        0.52200    0.64940    0.63497    1.000
    O123     O        0.03080    0.31440    0.67887    1.000
    O124     O        0.10740    0.10580    0.66137    1.000
    O125     O        0.91630    0.40440    0.40027    1.000
    O126     O        0.61030    0.00290    0.63427    1.000
    O127     O        0.17520    0.12110    0.39467    1.000
    O128     O        0.63660    0.85160    0.62677    1.000
    O129     O        0.10730    0.33710    0.40467    1.000
    Br1      Br       0.87787    0.48994    0.82997    1.000
    Br2      Br       0.61207    0.12213    0.16330    1.000
    Br3      Br       0.51006    0.38793    0.49664    1.000
