# CIF file generated by openbabel 3.1.0, see https://openbabel.org
data_I
_chemical_name_common 'HEBKEG_clean'
_cell_length_a 5.8751
_cell_length_b 15.067
_cell_length_c 16.416
_cell_angle_alpha 90
_cell_angle_beta 90
_cell_angle_gamma 90
_space_group_name_H-M_alt 'P 1'
_space_group_name_Hall 'P 1'
loop_
    _symmetry_equiv_pos_as_xyz
    x,y,z
loop_
    _atom_site_label
    _atom_site_type_symbol
    _atom_site_fract_x
    _atom_site_fract_y
    _atom_site_fract_z
    _atom_site_occupancy
    Cd1      Cd       0.38700    0.58859    0.96366    1.000
    Cd2      Cd       0.11300    0.41141    0.46366    1.000
    Cd3      Cd       0.61300    0.08859    0.53634    1.000
    Cd4      Cd       0.88700    0.91141    0.03634    1.000
    H1       H        0.47080    0.38710    0.24610    1.000
    H2       H        0.65200    0.37060    0.36920    1.000
    H3       H        0.17710    0.50510    0.29220    1.000
    H4       H        0.01190    0.52660    0.16740    1.000
    H5       H        0.78670    0.55460    0.04860    1.000
    H6       H        0.43530    0.47000    0.12370    1.000
    H7       H        0.63730    0.42490    0.07760    1.000
    H8       H        0.74230    0.63870    0.16270    1.000
    H9       H        0.38190    0.70830    0.18270    1.000
    H10      H        0.36850    0.60540    0.19650    1.000
    H11      H        0.19000    0.69000    0.07100    1.000
    H12      H        0.02920    0.61290    0.74610    1.000
    H13      H        0.84800    0.62940    0.86920    1.000
    H14      H        0.32290    0.49490    0.79220    1.000
    H15      H        0.48810    0.47340    0.66740    1.000
    H16      H        0.71330    0.44540    0.54860    1.000
    H17      H        0.06470    0.53000    0.62370    1.000
    H18      H        0.86270    0.57510    0.57760    1.000
    H19      H        0.75770    0.36130    0.66270    1.000
    H20      H        0.11810    0.29170    0.68270    1.000
    H21      H        0.13150    0.39460    0.69650    1.000
    H22      H        0.31000    0.31000    0.57100    1.000
    H23      H        0.52920    0.88710    0.25390    1.000
    H24      H        0.34800    0.87060    0.13080    1.000
    H25      H        0.82290    0.00510    0.20780    1.000
    H26      H        0.98810    0.02660    0.33260    1.000
    H27      H        0.21330    0.05460    0.45140    1.000
    H28      H        0.56470    0.97000    0.37630    1.000
    H29      H        0.36270    0.92490    0.42240    1.000
    H30      H        0.25770    0.13870    0.33730    1.000
    H31      H        0.61810    0.20830    0.31730    1.000
    H32      H        0.63150    0.10540    0.30350    1.000
    H33      H        0.81000    0.19000    0.42900    1.000
    H34      H        0.97080    0.11290    0.75390    1.000
    H35      H        0.15200    0.12940    0.63080    1.000
    H36      H        0.67710    0.99490    0.70780    1.000
    H37      H        0.51190    0.97340    0.83260    1.000
    H38      H        0.28670    0.94540    0.95140    1.000
    H39      H        0.93530    0.03000    0.87630    1.000
    H40      H        0.13730    0.07510    0.92240    1.000
    H41      H        0.24230    0.86130    0.83730    1.000
    H42      H        0.88190    0.79170    0.81730    1.000
    H43      H        0.86850    0.89460    0.80350    1.000
    H44      H        0.69000    0.81000    0.92900    1.000
    C1       C        0.61350    0.41230    0.25430    1.000
    C2       C        0.71900    0.46010    0.19270    1.000
    C3       C        0.72380    0.40270    0.32820    1.000
    C4       C        0.03270    0.48190    0.28290    1.000
    C5       C        0.93520    0.49500    0.20760    1.000
    C6       C        0.59770    0.47360    0.11360    1.000
    C7       C        0.62900    0.64050    0.11890    1.000
    C8       C        0.39250    0.65110    0.15580    1.000
    C9       C        0.67870    0.71960    0.06320    1.000
    C10      C        0.88650    0.58770    0.75430    1.000
    C11      C        0.78100    0.53990    0.69270    1.000
    C12      C        0.77620    0.59730    0.82820    1.000
    C13      C        0.46730    0.51810    0.78290    1.000
    C14      C        0.56480    0.50500    0.70760    1.000
    C15      C        0.90230    0.52640    0.61360    1.000
    C16      C        0.87100    0.35950    0.61890    1.000
    C17      C        0.10750    0.34890    0.65580    1.000
    C18      C        0.82130    0.28040    0.56320    1.000
    C19      C        0.38650    0.91230    0.24570    1.000
    C20      C        0.28100    0.96010    0.30730    1.000
    C21      C        0.27620    0.90270    0.17180    1.000
    C22      C        0.96730    0.98190    0.21710    1.000
    C23      C        0.06480    0.99500    0.29240    1.000
    C24      C        0.40230    0.97360    0.38640    1.000
    C25      C        0.37100    0.14050    0.38110    1.000
    C26      C        0.60750    0.15110    0.34420    1.000
    C27      C        0.32130    0.21960    0.43680    1.000
    C28      C        0.11350    0.08770    0.74570    1.000
    C29      C        0.21900    0.03990    0.80730    1.000
    C30      C        0.22380    0.09730    0.67180    1.000
    C31      C        0.53270    0.01810    0.71710    1.000
    C32      C        0.43520    0.00500    0.79240    1.000
    C33      C        0.09770    0.02640    0.88640    1.000
    C34      C        0.12900    0.85950    0.88110    1.000
    C35      C        0.89250    0.84890    0.84420    1.000
    C36      C        0.17870    0.78040    0.93680    1.000
    N1       N        0.93110    0.43760    0.34330    1.000
    N2       N        0.64430    0.55790    0.07020    1.000
    N3       N        0.56890    0.56240    0.84330    1.000
    N4       N        0.85570    0.44210    0.57020    1.000
    N5       N        0.06890    0.93760    0.15670    1.000
    N6       N        0.35570    0.05790    0.42980    1.000
    N7       N        0.43110    0.06240    0.65670    1.000
    N8       N        0.14430    0.94210    0.92980    1.000
    Cl1      Cl       0.09910    0.46916    0.96741    1.000
    Cl2      Cl       0.40090    0.53084    0.46741    1.000
    Cl3      Cl       0.90090    0.96916    0.53259    1.000
    Cl4      Cl       0.59910    0.03084    0.03259    1.000
    O1       O        0.66360    0.70740    0.98762    1.000
    O2       O        0.21950    0.64480    0.09460    1.000
    O3       O        0.71810    0.79170    0.09764    1.000
    O4       O        0.83640    0.29260    0.48762    1.000
    O5       O        0.28050    0.35520    0.59460    1.000
    O6       O        0.78190    0.20830    0.59764    1.000
    O7       O        0.33640    0.20740    0.51238    1.000
    O8       O        0.78050    0.14480    0.40540    1.000
    O9       O        0.28190    0.29170    0.40236    1.000
    O10      O        0.16360    0.79260    0.01238    1.000
    O11      O        0.71950    0.85520    0.90540    1.000
    O12      O        0.21810    0.70830    0.90236    1.000
