# CIF file generated by openbabel 3.1.0, see https://openbabel.org
data_I
_chemical_name_common 'image0'
_cell_length_a 27.994
_cell_length_b 27.994
_cell_length_c 19.391
_cell_angle_alpha 90
_cell_angle_beta 90
_cell_angle_gamma 90
_space_group_name_H-M_alt 'P 1'
_space_group_name_Hall 'P 1'
loop_
    _symmetry_equiv_pos_as_xyz
    x,y,z
loop_
    _atom_site_label
    _atom_site_type_symbol
    _atom_site_fract_x
    _atom_site_fract_y
    _atom_site_fract_z
    _atom_site_occupancy
    O1       O        0.99070    0.97010    0.99410    1.000
    Rb1      Rb       0.93829    0.03498    0.88724    1.000
    C1       C        0.05719    0.08778    0.80860    1.000
    C2       C        0.09031    0.16073    0.78060    1.000
    H1       H        0.07100    0.19020    0.77580    1.000
    C3       C        0.08733    0.13078    0.71630    1.000
    H2       H        0.06630    0.14540    0.68110    1.000
    C4       C        0.16730    0.15521    0.73280    1.000
    C5       C        0.04892    0.05064    0.69640    1.000
    H3       H        0.03130    0.06690    0.65960    1.000
    H4       H        0.02610    0.03130    0.72270    1.000
    C6       C        0.14880    0.11265    0.62440    1.000
    H5       H        0.12430    0.12390    0.59210    1.000
    H6       H        0.17930    0.12710    0.61090    1.000
    C7       C        0.08810    0.97156    0.68000    1.000
    C8       C        0.11118    0.03220    0.60640    1.000
    H7       H        0.09010    0.04610    0.57060    1.000
    C9       C        0.13361    0.98450    0.58130    1.000
    H8       H        0.12060    0.97470    0.53600    1.000
    C10      C        0.19369    0.04120    0.59830    1.000
    C11      C        0.12834    0.90130    0.63130    1.000
    H9       H        0.12080    0.89020    0.58460    1.000
    H10      H        0.10690    0.88480    0.66340    1.000
    C12      C        0.21861    0.96540    0.53990    1.000
    H11      H        0.20260    0.95060    0.50030    1.000
    H12      H        0.24420    0.98580    0.52210    1.000
    C13      C        0.18801    0.86551    0.70700    1.000
    C14      C        0.21480    0.88401    0.59630    1.000
    H13      H        0.20380    0.86720    0.55430    1.000
    C15      C        0.25391    0.85566    0.63620    1.000
    H14      H        0.26160    0.82530    0.61250    1.000
    C16      C        0.28538    0.92949    0.60270    1.000
    C17      C        0.25170    0.81380    0.74950    1.000
    H15      H        0.26520    0.78680    0.72400    1.000
    H16      H        0.22490    0.80160    0.77690    1.000
    C18      C        0.34171    0.87470    0.65760    1.000
    H17      H        0.36530    0.89540    0.63530    1.000
    H18      H        0.34790    0.84190    0.64240    1.000
    C19      C        0.28100    0.83380    0.86530    1.000
    C20      C        0.33760    0.83740    0.77410    1.000
    H19      H        0.35050    0.80730    0.75490    1.000
    C21      C        0.36160    0.85060    0.84210    1.000
    H20      H        0.38960    0.83010    0.85180    1.000
    C22      C        0.37180    0.91310    0.76490    1.000
    C23      C        0.33370    0.84040    0.96620    1.000
    H21      H        0.36410    0.82370    0.97310    1.000
    H22      H        0.30840    0.82160    0.98840    1.000
    C24      C        0.40912    0.92580    0.87780    1.000
    H23      H        0.43440    0.90370    0.89200    1.000
    H24      H        0.42410    0.95210    0.85230    1.000
    C25      C        0.29890    0.90870    0.04130    1.000
    C26      C        0.37650    0.92090    0.99970    1.000
    H25      H        0.40510    0.90280    0.01430    1.000
    C27      C        0.36460    0.95730    0.05400    1.000
    H26      H        0.38580    0.95550    0.09490    1.000
    C28      C        0.38398    0.99090    0.94620    1.000
    C29      C        0.29030    0.96960    0.12620    1.000
    H27      H        0.26420    0.94930    0.14250    1.000
    H28      H        0.31290    0.97350    0.16440    1.000
    C30      C        0.37450    0.05240    0.04100    1.000
    H29      H        0.39360    0.05200    0.08340    1.000
    H30      H        0.39150    0.07200    0.00710    1.000
    C31      C        0.22200    0.02550    0.09470    1.000
    C32      C        0.29630    0.06430    0.11150    1.000
    H31      H        0.31380    0.06630    0.15580    1.000
    C33      C        0.25930    0.10310    0.10990    1.000
    H32      H        0.25520    0.11930    0.15490    1.000
    C34      C        0.32070    0.11750    0.02890    1.000
    C35      C        0.16910    0.09760    0.09090    1.000
    H33      H        0.14460    0.07330    0.09950    1.000
    H34      H        0.16860    0.11960    0.13020    1.000
    C36      C        0.25730    0.18040    0.04100    1.000
    H35      H        0.28180    0.20070    0.01970    1.000
    H36      H        0.24830    0.19500    0.08500    1.000
    C37      C        0.11610    0.11260    0.98980    1.000
    C38      C        0.16740    0.17480    0.01690    1.000
    H37      H        0.16000    0.19530    0.05700    1.000
    C39      C        0.13700    0.18630    0.95660    1.000
    H38      H        0.11930    0.21650    0.96350    1.000
    C40      C        0.21780    0.19300    0.93040    1.000
    C41      C        0.06227    0.14530    0.90500    1.000
    H39      H        0.04820    0.17730    0.90480    1.000
    H40      H        0.03910    0.12350    0.92590    1.000
    C42      C        0.16010    0.20960    0.83430    1.000
    H41      H        0.13630    0.23510    0.83880    1.000
    H42      H        0.18910    0.22350    0.81410    1.000
    N1       N        0.07115    0.13038    0.83360    1.000
    N2       N        0.06908    0.08519    0.74040    1.000
    N3       N        0.14171    0.17249    0.78870    1.000
    N4       N        0.13653    0.12868    0.69370    1.000
    N5       N        0.08470    0.01891    0.66530    1.000
    N6       N        0.11972    0.95180    0.63530    1.000
    N7       N        0.15263    0.06314    0.61910    1.000
    N8       N        0.18395    0.99528    0.57710    1.000
    N9       N        0.17738    0.88868    0.64750    1.000
    N10      N        0.23384    0.84715    0.70170    1.000
    N11      N        0.23900    0.92914    0.58070    1.000
    N12      N        0.29506    0.88853    0.63500    1.000
    N13      N        0.28778    0.83204    0.79610    1.000
    N14      N        0.32390    0.84410    0.89320    1.000
    N15      N        0.34814    0.87730    0.73090    1.000
    N16      N        0.37521    0.90080    0.83240    1.000
    N17      N        0.33610    0.88950    0.99930    1.000
    N18      N        0.31460    0.94530    0.06940    1.000
    N19      N        0.38631    0.94420    0.93700    1.000
    N20      N        0.37090    0.00190    0.01380    1.000
    N21      N        0.27110    0.01630    0.10790    1.000
    N22      N        0.21740    0.07270    0.09040    1.000
    N23      N        0.32980    0.07400    0.05540    1.000
    N24      N        0.27720    0.13580    0.05400    1.000
    N25      N        0.15491    0.12430    0.02970    1.000
    N26      N        0.10453    0.14590    0.94600    1.000
    N27      N        0.21550    0.17940    0.99610    1.000
    N28      N        0.17127    0.19040    0.90250    1.000
    O2       O        0.03548    0.05645    0.84100    1.000
    O3       O        0.06593    0.95073    0.72643    1.000
    O4       O        0.16235    0.86263    0.75820    1.000
    O5       O        0.24539    0.82620    0.89800    1.000
    O6       O        0.26123    0.88600    0.05580    1.000
    O7       O        0.19150    0.99800    0.09440    1.000
    O8       O        0.09732    0.07210    0.99470    1.000
    O9       O        0.20884    0.16362    0.72090    1.000
    O10      O        0.23441    0.05982    0.59700    1.000
    O11      O        0.31421    0.96246    0.59260    1.000
    O12      O        0.38627    0.94978    0.73700    1.000
    O13      O        0.39164    0.02550    0.90300    1.000
    O14      O        0.34468    0.13920    0.98640    1.000
    O15      O        0.25319    0.20219    0.89900    1.000
    O16      O        0.49070    0.47010    0.49410    1.000
    Rb2      Rb       0.43829    0.53498    0.38724    1.000
    C43      C        0.55719    0.58778    0.30860    1.000
    C44      C        0.59031    0.66073    0.28060    1.000
    H43      H        0.57100    0.69020    0.27580    1.000
    C45      C        0.58733    0.63078    0.21630    1.000
    H44      H        0.56630    0.64540    0.18110    1.000
    C46      C        0.66730    0.65521    0.23280    1.000
    C47      C        0.54892    0.55064    0.19640    1.000
    H45      H        0.53130    0.56690    0.15960    1.000
    H46      H        0.52610    0.53130    0.22270    1.000
    C48      C        0.64880    0.61265    0.12440    1.000
    H47      H        0.62430    0.62390    0.09210    1.000
    H48      H        0.67930    0.62710    0.11090    1.000
    C49      C        0.58810    0.47156    0.18000    1.000
    C50      C        0.61118    0.53220    0.10640    1.000
    H49      H        0.59010    0.54610    0.07060    1.000
    C51      C        0.63361    0.48450    0.08130    1.000
    H50      H        0.62060    0.47470    0.03600    1.000
    C52      C        0.69369    0.54120    0.09830    1.000
    C53      C        0.62834    0.40130    0.13130    1.000
    H51      H        0.62080    0.39020    0.08460    1.000
    H52      H        0.60690    0.38480    0.16340    1.000
    C54      C        0.71861    0.46540    0.03990    1.000
    H53      H        0.70260    0.45060    0.00030    1.000
    H54      H        0.74420    0.48580    0.02210    1.000
    C55      C        0.68801    0.36551    0.20700    1.000
    C56      C        0.71480    0.38401    0.09630    1.000
    H55      H        0.70380    0.36720    0.05430    1.000
    C57      C        0.75391    0.35566    0.13620    1.000
    H56      H        0.76160    0.32530    0.11250    1.000
    C58      C        0.78538    0.42949    0.10270    1.000
    C59      C        0.75170    0.31380    0.24950    1.000
    H57      H        0.76520    0.28680    0.22400    1.000
    H58      H        0.72490    0.30160    0.27690    1.000
    C60      C        0.84171    0.37470    0.15760    1.000
    H59      H        0.86530    0.39540    0.13530    1.000
    H60      H        0.84790    0.34190    0.14240    1.000
    C61      C        0.78100    0.33380    0.36530    1.000
    C62      C        0.83760    0.33740    0.27410    1.000
    H61      H        0.85050    0.30730    0.25490    1.000
    C63      C        0.86160    0.35060    0.34210    1.000
    H62      H        0.88960    0.33010    0.35180    1.000
    C64      C        0.87180    0.41310    0.26490    1.000
    C65      C        0.83370    0.34040    0.46620    1.000
    H63      H        0.86410    0.32370    0.47310    1.000
    H64      H        0.80840    0.32160    0.48840    1.000
    C66      C        0.90912    0.42580    0.37780    1.000
    H65      H        0.93440    0.40370    0.39200    1.000
    H66      H        0.92410    0.45210    0.35230    1.000
    C67      C        0.79890    0.40870    0.54130    1.000
    C68      C        0.87650    0.42090    0.49970    1.000
    H67      H        0.90510    0.40280    0.51430    1.000
    C69      C        0.86460    0.45730    0.55400    1.000
    H68      H        0.88580    0.45550    0.59490    1.000
    C70      C        0.88398    0.49090    0.44620    1.000
    C71      C        0.79030    0.46960    0.62620    1.000
    H69      H        0.76420    0.44930    0.64250    1.000
    H70      H        0.81290    0.47350    0.66440    1.000
    C72      C        0.87450    0.55240    0.54100    1.000
    H71      H        0.89360    0.55200    0.58340    1.000
    H72      H        0.89150    0.57200    0.50710    1.000
    C73      C        0.72200    0.52550    0.59470    1.000
    C74      C        0.79630    0.56430    0.61150    1.000
    H73      H        0.81380    0.56630    0.65580    1.000
    C75      C        0.75930    0.60310    0.60990    1.000
    H74      H        0.75520    0.61930    0.65490    1.000
    C76      C        0.82070    0.61750    0.52890    1.000
    C77      C        0.66910    0.59760    0.59090    1.000
    H75      H        0.64460    0.57330    0.59950    1.000
    H76      H        0.66860    0.61960    0.63020    1.000
    C78      C        0.75730    0.68040    0.54100    1.000
    H77      H        0.78180    0.70070    0.51970    1.000
    H78      H        0.74830    0.69500    0.58500    1.000
    C79      C        0.61610    0.61260    0.48980    1.000
    C80      C        0.66740    0.67480    0.51690    1.000
    H79      H        0.66000    0.69530    0.55700    1.000
    C81      C        0.63700    0.68630    0.45660    1.000
    H80      H        0.61930    0.71650    0.46350    1.000
    C82      C        0.71780    0.69300    0.43040    1.000
    C83      C        0.56227    0.64530    0.40500    1.000
    H81      H        0.54820    0.67730    0.40480    1.000
    H82      H        0.53910    0.62350    0.42590    1.000
    C84      C        0.66010    0.70960    0.33430    1.000
    H83      H        0.63630    0.73510    0.33880    1.000
    H84      H        0.68910    0.72350    0.31410    1.000
    N29      N        0.57115    0.63038    0.33360    1.000
    N30      N        0.56908    0.58519    0.24040    1.000
    N31      N        0.64171    0.67249    0.28870    1.000
    N32      N        0.63653    0.62868    0.19370    1.000
    N33      N        0.58470    0.51891    0.16530    1.000
    N34      N        0.61972    0.45180    0.13530    1.000
    N35      N        0.65263    0.56314    0.11910    1.000
    N36      N        0.68395    0.49528    0.07710    1.000
    N37      N        0.67738    0.38868    0.14750    1.000
    N38      N        0.73384    0.34715    0.20170    1.000
    N39      N        0.73900    0.42914    0.08070    1.000
    N40      N        0.79506    0.38853    0.13500    1.000
    N41      N        0.78778    0.33204    0.29610    1.000
    N42      N        0.82390    0.34410    0.39320    1.000
    N43      N        0.84814    0.37730    0.23090    1.000
    N44      N        0.87521    0.40080    0.33240    1.000
    N45      N        0.83610    0.38950    0.49930    1.000
    N46      N        0.81460    0.44530    0.56940    1.000
    N47      N        0.88631    0.44420    0.43700    1.000
    N48      N        0.87090    0.50190    0.51380    1.000
    N49      N        0.77110    0.51630    0.60790    1.000
    N50      N        0.71740    0.57270    0.59040    1.000
    N51      N        0.82980    0.57400    0.55540    1.000
    N52      N        0.77720    0.63580    0.55400    1.000
    N53      N        0.65491    0.62430    0.52970    1.000
    N54      N        0.60453    0.64590    0.44600    1.000
    N55      N        0.71550    0.67940    0.49610    1.000
    N56      N        0.67127    0.69040    0.40250    1.000
    O17      O        0.53548    0.55645    0.34100    1.000
    O18      O        0.56593    0.45073    0.22643    1.000
    O19      O        0.66235    0.36263    0.25820    1.000
    O20      O        0.74539    0.32620    0.39800    1.000
    O21      O        0.76123    0.38600    0.55580    1.000
    O22      O        0.69150    0.49800    0.59440    1.000
    O23      O        0.59732    0.57210    0.49470    1.000
    O24      O        0.70884    0.66362    0.22090    1.000
    O25      O        0.73441    0.55982    0.09700    1.000
    O26      O        0.81421    0.46246    0.09260    1.000
    O27      O        0.88627    0.44978    0.23700    1.000
    O28      O        0.89164    0.52550    0.40300    1.000
    O29      O        0.84468    0.63920    0.48640    1.000
    O30      O        0.75319    0.70219    0.39900    1.000
    O31      O        0.50930    0.52990    0.49410    1.000
    Rb3      Rb       0.56171    0.46502    0.38724    1.000
    C85      C        0.44281    0.41222    0.30860    1.000
    C86      C        0.40969    0.33927    0.28060    1.000
    H85      H        0.42900    0.30980    0.27580    1.000
    C87      C        0.41267    0.36922    0.21630    1.000
    H86      H        0.43370    0.35460    0.18110    1.000
    C88      C        0.33270    0.34479    0.23280    1.000
    C89      C        0.45108    0.44936    0.19640    1.000
    H87      H        0.46870    0.43310    0.15960    1.000
    H88      H        0.47390    0.46870    0.22270    1.000
    C90      C        0.35120    0.38735    0.12440    1.000
    H89      H        0.37570    0.37610    0.09210    1.000
    H90      H        0.32070    0.37290    0.11090    1.000
    C91      C        0.41190    0.52844    0.18000    1.000
    C92      C        0.38882    0.46780    0.10640    1.000
    H91      H        0.40990    0.45390    0.07060    1.000
    C93      C        0.36639    0.51550    0.08130    1.000
    H92      H        0.37940    0.52530    0.03600    1.000
    C94      C        0.30631    0.45880    0.09830    1.000
    C95      C        0.37166    0.59870    0.13130    1.000
    H93      H        0.37920    0.60980    0.08460    1.000
    H94      H        0.39310    0.61520    0.16340    1.000
    C96      C        0.28139    0.53460    0.03990    1.000
    H95      H        0.29740    0.54940    0.00030    1.000
    H96      H        0.25580    0.51420    0.02210    1.000
    C97      C        0.31199    0.63449    0.20700    1.000
    C98      C        0.28520    0.61599    0.09630    1.000
    H97      H        0.29620    0.63280    0.05430    1.000
    C99      C        0.24609    0.64434    0.13620    1.000
    H98      H        0.23840    0.67470    0.11250    1.000
    C100     C        0.21462    0.57051    0.10270    1.000
    C101     C        0.24830    0.68620    0.24950    1.000
    H99      H        0.23480    0.71320    0.22400    1.000
    H100     H        0.27510    0.69840    0.27690    1.000
    C102     C        0.15829    0.62530    0.15760    1.000
    H101     H        0.13470    0.60460    0.13530    1.000
    H102     H        0.15210    0.65810    0.14240    1.000
    C103     C        0.21900    0.66620    0.36530    1.000
    C104     C        0.16240    0.66260    0.27410    1.000
    H103     H        0.14950    0.69270    0.25490    1.000
    C105     C        0.13840    0.64940    0.34210    1.000
    H104     H        0.11040    0.66990    0.35180    1.000
    C106     C        0.12820    0.58690    0.26490    1.000
    C107     C        0.16630    0.65960    0.46620    1.000
    H105     H        0.13590    0.67630    0.47310    1.000
    H106     H        0.19160    0.67840    0.48840    1.000
    C108     C        0.09088    0.57420    0.37780    1.000
    H107     H        0.06560    0.59630    0.39200    1.000
    H108     H        0.07590    0.54790    0.35230    1.000
    C109     C        0.20110    0.59130    0.54130    1.000
    C110     C        0.12350    0.57910    0.49970    1.000
    H109     H        0.09490    0.59720    0.51430    1.000
    C111     C        0.13540    0.54270    0.55400    1.000
    H110     H        0.11420    0.54450    0.59490    1.000
    C112     C        0.11602    0.50910    0.44620    1.000
    C113     C        0.20970    0.53040    0.62620    1.000
    H111     H        0.23580    0.55070    0.64250    1.000
    H112     H        0.18710    0.52650    0.66440    1.000
    C114     C        0.12550    0.44760    0.54100    1.000
    H113     H        0.10640    0.44800    0.58340    1.000
    H114     H        0.10850    0.42800    0.50710    1.000
    C115     C        0.27800    0.47450    0.59470    1.000
    C116     C        0.20370    0.43570    0.61150    1.000
    H115     H        0.18620    0.43370    0.65580    1.000
    C117     C        0.24070    0.39690    0.60990    1.000
    H116     H        0.24480    0.38070    0.65490    1.000
    C118     C        0.17930    0.38250    0.52890    1.000
    C119     C        0.33090    0.40240    0.59090    1.000
    H117     H        0.35540    0.42670    0.59950    1.000
    H118     H        0.33140    0.38040    0.63020    1.000
    C120     C        0.24270    0.31960    0.54100    1.000
    H119     H        0.21820    0.29930    0.51970    1.000
    H120     H        0.25170    0.30500    0.58500    1.000
    C121     C        0.38390    0.38740    0.48980    1.000
    C122     C        0.33260    0.32520    0.51690    1.000
    H121     H        0.34000    0.30470    0.55700    1.000
    C123     C        0.36300    0.31370    0.45660    1.000
    H122     H        0.38070    0.28350    0.46350    1.000
    C124     C        0.28220    0.30700    0.43040    1.000
    C125     C        0.43773    0.35470    0.40500    1.000
    H123     H        0.45180    0.32270    0.40480    1.000
    H124     H        0.46090    0.37650    0.42590    1.000
    C126     C        0.33990    0.29040    0.33430    1.000
    H125     H        0.36370    0.26490    0.33880    1.000
    H126     H        0.31090    0.27650    0.31410    1.000
    N57      N        0.42885    0.36962    0.33360    1.000
    N58      N        0.43092    0.41481    0.24040    1.000
    N59      N        0.35829    0.32751    0.28870    1.000
    N60      N        0.36347    0.37132    0.19370    1.000
    N61      N        0.41530    0.48109    0.16530    1.000
    N62      N        0.38028    0.54820    0.13530    1.000
    N63      N        0.34737    0.43686    0.11910    1.000
    N64      N        0.31605    0.50472    0.07710    1.000
    N65      N        0.32262    0.61132    0.14750    1.000
    N66      N        0.26616    0.65285    0.20170    1.000
    N67      N        0.26100    0.57086    0.08070    1.000
    N68      N        0.20494    0.61147    0.13500    1.000
    N69      N        0.21222    0.66796    0.29610    1.000
    N70      N        0.17610    0.65590    0.39320    1.000
    N71      N        0.15186    0.62270    0.23090    1.000
    N72      N        0.12479    0.59920    0.33240    1.000
    N73      N        0.16390    0.61050    0.49930    1.000
    N74      N        0.18540    0.55470    0.56940    1.000
    N75      N        0.11369    0.55580    0.43700    1.000
    N76      N        0.12910    0.49810    0.51380    1.000
    N77      N        0.22890    0.48370    0.60790    1.000
    N78      N        0.28260    0.42730    0.59040    1.000
    N79      N        0.17020    0.42600    0.55540    1.000
    N80      N        0.22280    0.36420    0.55400    1.000
    N81      N        0.34509    0.37570    0.52970    1.000
    N82      N        0.39547    0.35410    0.44600    1.000
    N83      N        0.28450    0.32060    0.49610    1.000
    N84      N        0.32873    0.30960    0.40250    1.000
    O32      O        0.46452    0.44355    0.34100    1.000
    O33      O        0.43407    0.54927    0.22643    1.000
    O34      O        0.33765    0.63737    0.25820    1.000
    O35      O        0.25461    0.67380    0.39800    1.000
    O36      O        0.23877    0.61400    0.55580    1.000
    O37      O        0.30850    0.50200    0.59440    1.000
    O38      O        0.40268    0.42790    0.49470    1.000
    O39      O        0.29116    0.33638    0.22090    1.000
    O40      O        0.26559    0.44018    0.09700    1.000
    O41      O        0.18579    0.53754    0.09260    1.000
    O42      O        0.11373    0.55022    0.23700    1.000
    O43      O        0.10836    0.47450    0.40300    1.000
    O44      O        0.15532    0.36080    0.48640    1.000
    O45      O        0.24681    0.29781    0.39900    1.000
    O46      O        0.00930    0.02990    0.99410    1.000
    Rb4      Rb       0.06171    0.96502    0.88724    1.000
    C127     C        0.94281    0.91222    0.80860    1.000
    C128     C        0.90969    0.83927    0.78060    1.000
    H127     H        0.92900    0.80980    0.77580    1.000
    C129     C        0.91267    0.86922    0.71630    1.000
    H128     H        0.93370    0.85460    0.68110    1.000
    C130     C        0.83270    0.84479    0.73280    1.000
    C131     C        0.95108    0.94936    0.69640    1.000
    H129     H        0.96870    0.93310    0.65960    1.000
    H130     H        0.97390    0.96870    0.72270    1.000
    C132     C        0.85120    0.88735    0.62440    1.000
    H131     H        0.87570    0.87610    0.59210    1.000
    H132     H        0.82070    0.87290    0.61090    1.000
    C133     C        0.91190    0.02844    0.68000    1.000
    C134     C        0.88882    0.96780    0.60640    1.000
    H133     H        0.90990    0.95390    0.57060    1.000
    C135     C        0.86639    0.01550    0.58130    1.000
    H134     H        0.87940    0.02530    0.53600    1.000
    C136     C        0.80631    0.95880    0.59830    1.000
    C137     C        0.87166    0.09870    0.63130    1.000
    H135     H        0.87920    0.10980    0.58460    1.000
    H136     H        0.89310    0.11520    0.66340    1.000
    C138     C        0.78139    0.03460    0.53990    1.000
    H137     H        0.79740    0.04940    0.50030    1.000
    H138     H        0.75580    0.01420    0.52210    1.000
    C139     C        0.81199    0.13449    0.70700    1.000
    C140     C        0.78520    0.11599    0.59630    1.000
    H139     H        0.79620    0.13280    0.55430    1.000
    C141     C        0.74609    0.14434    0.63620    1.000
    H140     H        0.73840    0.17470    0.61250    1.000
    C142     C        0.71462    0.07051    0.60270    1.000
    C143     C        0.74830    0.18620    0.74950    1.000
    H141     H        0.73480    0.21320    0.72400    1.000
    H142     H        0.77510    0.19840    0.77690    1.000
    C144     C        0.65829    0.12530    0.65760    1.000
    H143     H        0.63470    0.10460    0.63530    1.000
    H144     H        0.65210    0.15810    0.64240    1.000
    C145     C        0.71900    0.16620    0.86530    1.000
    C146     C        0.66240    0.16260    0.77410    1.000
    H145     H        0.64950    0.19270    0.75490    1.000
    C147     C        0.63840    0.14940    0.84210    1.000
    H146     H        0.61040    0.16990    0.85180    1.000
    C148     C        0.62820    0.08690    0.76490    1.000
    C149     C        0.66630    0.15960    0.96620    1.000
    H147     H        0.63590    0.17630    0.97310    1.000
    H148     H        0.69160    0.17840    0.98840    1.000
    C150     C        0.59088    0.07420    0.87780    1.000
    H149     H        0.56560    0.09630    0.89200    1.000
    H150     H        0.57590    0.04790    0.85230    1.000
    C151     C        0.70110    0.09130    0.04130    1.000
    C152     C        0.62350    0.07910    0.99970    1.000
    H151     H        0.59490    0.09720    0.01430    1.000
    C153     C        0.63540    0.04270    0.05400    1.000
    H152     H        0.61420    0.04450    0.09490    1.000
    C154     C        0.61602    0.00910    0.94620    1.000
    C155     C        0.70970    0.03040    0.12620    1.000
    H153     H        0.73580    0.05070    0.14250    1.000
    H154     H        0.68710    0.02650    0.16440    1.000
    C156     C        0.62550    0.94760    0.04100    1.000
    H155     H        0.60640    0.94800    0.08340    1.000
    H156     H        0.60850    0.92800    0.00710    1.000
    C157     C        0.77800    0.97450    0.09470    1.000
    C158     C        0.70370    0.93570    0.11150    1.000
    H157     H        0.68620    0.93370    0.15580    1.000
    C159     C        0.74070    0.89690    0.10990    1.000
    H158     H        0.74480    0.88070    0.15490    1.000
    C160     C        0.67930    0.88250    0.02890    1.000
    C161     C        0.83090    0.90240    0.09090    1.000
    H159     H        0.85540    0.92670    0.09950    1.000
    H160     H        0.83140    0.88040    0.13020    1.000
    C162     C        0.74270    0.81960    0.04100    1.000
    H161     H        0.71820    0.79930    0.01970    1.000
    H162     H        0.75170    0.80500    0.08500    1.000
    C163     C        0.88390    0.88740    0.98980    1.000
    C164     C        0.83260    0.82520    0.01690    1.000
    H163     H        0.84000    0.80470    0.05700    1.000
    C165     C        0.86300    0.81370    0.95660    1.000
    H164     H        0.88070    0.78350    0.96350    1.000
    C166     C        0.78220    0.80700    0.93040    1.000
    C167     C        0.93773    0.85470    0.90500    1.000
    H165     H        0.95180    0.82270    0.90480    1.000
    H166     H        0.96090    0.87650    0.92590    1.000
    C168     C        0.83990    0.79040    0.83430    1.000
    H167     H        0.86370    0.76490    0.83880    1.000
    H168     H        0.81090    0.77650    0.81410    1.000
    N85      N        0.92885    0.86962    0.83360    1.000
    N86      N        0.93092    0.91481    0.74040    1.000
    N87      N        0.85829    0.82751    0.78870    1.000
    N88      N        0.86347    0.87132    0.69370    1.000
    N89      N        0.91530    0.98109    0.66530    1.000
    N90      N        0.88028    0.04820    0.63530    1.000
    N91      N        0.84737    0.93686    0.61910    1.000
    N92      N        0.81605    0.00472    0.57710    1.000
    N93      N        0.82262    0.11132    0.64750    1.000
    N94      N        0.76616    0.15285    0.70170    1.000
    N95      N        0.76100    0.07086    0.58070    1.000
    N96      N        0.70494    0.11147    0.63500    1.000
    N97      N        0.71222    0.16796    0.79610    1.000
    N98      N        0.67610    0.15590    0.89320    1.000
    N99      N        0.65186    0.12270    0.73090    1.000
    N100     N        0.62479    0.09920    0.83240    1.000
    N101     N        0.66390    0.11050    0.99930    1.000
    N102     N        0.68540    0.05470    0.06940    1.000
    N103     N        0.61369    0.05580    0.93700    1.000
    N104     N        0.62910    0.99810    0.01380    1.000
    N105     N        0.72890    0.98370    0.10790    1.000
    N106     N        0.78260    0.92730    0.09040    1.000
    N107     N        0.67020    0.92600    0.05540    1.000
    N108     N        0.72280    0.86420    0.05400    1.000
    N109     N        0.84509    0.87570    0.02970    1.000
    N110     N        0.89547    0.85410    0.94600    1.000
    N111     N        0.78450    0.82060    0.99610    1.000
    N112     N        0.82873    0.80960    0.90250    1.000
    O47      O        0.96452    0.94355    0.84100    1.000
    O48      O        0.93407    0.04927    0.72643    1.000
    O49      O        0.83765    0.13737    0.75820    1.000
    O50      O        0.75461    0.17380    0.89800    1.000
    O51      O        0.73877    0.11400    0.05580    1.000
    O52      O        0.80850    0.00200    0.09440    1.000
    O53      O        0.90268    0.92790    0.99470    1.000
    O54      O        0.79116    0.83638    0.72090    1.000
    O55      O        0.76559    0.94018    0.59700    1.000
    O56      O        0.68579    0.03754    0.59260    1.000
    O57      O        0.61373    0.05022    0.73700    1.000
    O58      O        0.60836    0.97450    0.90300    1.000
    O59      O        0.65532    0.86080    0.98640    1.000
    O60      O        0.74681    0.79781    0.89900    1.000
    O61      O        0.02990    0.49070    0.24410    1.000
    Rb5      Rb       0.96502    0.43829    0.13724    1.000
    C169     C        0.91222    0.55719    0.05860    1.000
    C170     C        0.83927    0.59031    0.03060    1.000
    H169     H        0.80980    0.57100    0.02580    1.000
    C171     C        0.86922    0.58733    0.96630    1.000
    H170     H        0.85460    0.56630    0.93110    1.000
    C172     C        0.84479    0.66730    0.98280    1.000
    C173     C        0.94936    0.54892    0.94640    1.000
    H171     H        0.93310    0.53130    0.90960    1.000
    H172     H        0.96870    0.52610    0.97270    1.000
    C174     C        0.88735    0.64880    0.87440    1.000
    H173     H        0.87610    0.62430    0.84210    1.000
    H174     H        0.87290    0.67930    0.86090    1.000
    C175     C        0.02844    0.58810    0.93000    1.000
    C176     C        0.96780    0.61118    0.85640    1.000
    H175     H        0.95390    0.59010    0.82060    1.000
    C177     C        0.01550    0.63361    0.83130    1.000
    H176     H        0.02530    0.62060    0.78600    1.000
    C178     C        0.95880    0.69369    0.84830    1.000
    C179     C        0.09870    0.62834    0.88130    1.000
    H177     H        0.10980    0.62080    0.83460    1.000
    H178     H        0.11520    0.60690    0.91340    1.000
    C180     C        0.03460    0.71861    0.78990    1.000
    H179     H        0.04940    0.70260    0.75030    1.000
    H180     H        0.01420    0.74420    0.77210    1.000
    C181     C        0.13449    0.68801    0.95700    1.000
    C182     C        0.11599    0.71480    0.84630    1.000
    H181     H        0.13280    0.70380    0.80430    1.000
    C183     C        0.14434    0.75391    0.88620    1.000
    H182     H        0.17470    0.76160    0.86250    1.000
    C184     C        0.07051    0.78538    0.85270    1.000
    C185     C        0.18620    0.75170    0.99950    1.000
    H183     H        0.21320    0.76520    0.97400    1.000
    H184     H        0.19840    0.72490    0.02690    1.000
    C186     C        0.12530    0.84171    0.90760    1.000
    H185     H        0.10460    0.86530    0.88530    1.000
    H186     H        0.15810    0.84790    0.89240    1.000
    C187     C        0.16620    0.78100    0.11530    1.000
    C188     C        0.16260    0.83760    0.02410    1.000
    H187     H        0.19270    0.85050    0.00490    1.000
    C189     C        0.14940    0.86160    0.09210    1.000
    H188     H        0.16990    0.88960    0.10180    1.000
    C190     C        0.08690    0.87180    0.01490    1.000
    C191     C        0.15960    0.83370    0.21620    1.000
    H189     H        0.17630    0.86410    0.22310    1.000
    H190     H        0.17840    0.80840    0.23840    1.000
    C192     C        0.07420    0.90912    0.12780    1.000
    H191     H        0.09630    0.93440    0.14200    1.000
    H192     H        0.04790    0.92410    0.10230    1.000
    C193     C        0.09130    0.79890    0.29130    1.000
    C194     C        0.07910    0.87650    0.24970    1.000
    H193     H        0.09720    0.90510    0.26430    1.000
    C195     C        0.04270    0.86460    0.30400    1.000
    H194     H        0.04450    0.88580    0.34490    1.000
    C196     C        0.00910    0.88398    0.19620    1.000
    C197     C        0.03040    0.79030    0.37620    1.000
    H195     H        0.05070    0.76420    0.39250    1.000
    H196     H        0.02650    0.81290    0.41440    1.000
    C198     C        0.94760    0.87450    0.29100    1.000
    H197     H        0.94800    0.89360    0.33340    1.000
    H198     H        0.92800    0.89150    0.25710    1.000
    C199     C        0.97450    0.72200    0.34470    1.000
    C200     C        0.93570    0.79630    0.36150    1.000
    H199     H        0.93370    0.81380    0.40580    1.000
    C201     C        0.89690    0.75930    0.35990    1.000
    H200     H        0.88070    0.75520    0.40490    1.000
    C202     C        0.88250    0.82070    0.27890    1.000
    C203     C        0.90240    0.66910    0.34090    1.000
    H201     H        0.92670    0.64460    0.34950    1.000
    H202     H        0.88040    0.66860    0.38020    1.000
    C204     C        0.81960    0.75730    0.29100    1.000
    H203     H        0.79930    0.78180    0.26970    1.000
    H204     H        0.80500    0.74830    0.33500    1.000
    C205     C        0.88740    0.61610    0.23980    1.000
    C206     C        0.82520    0.66740    0.26690    1.000
    H205     H        0.80470    0.66000    0.30700    1.000
    C207     C        0.81370    0.63700    0.20660    1.000
    H206     H        0.78350    0.61930    0.21350    1.000
    C208     C        0.80700    0.71780    0.18040    1.000
    C209     C        0.85470    0.56227    0.15500    1.000
    H207     H        0.82270    0.54820    0.15480    1.000
    H208     H        0.87650    0.53910    0.17590    1.000
    C210     C        0.79040    0.66010    0.08430    1.000
    H209     H        0.76490    0.63630    0.08880    1.000
    H210     H        0.77650    0.68910    0.06410    1.000
    N113     N        0.86962    0.57115    0.08360    1.000
    N114     N        0.91481    0.56908    0.99040    1.000
    N115     N        0.82751    0.64171    0.03870    1.000
    N116     N        0.87132    0.63653    0.94370    1.000
    N117     N        0.98109    0.58470    0.91530    1.000
    N118     N        0.04820    0.61972    0.88530    1.000
    N119     N        0.93686    0.65263    0.86910    1.000
    N120     N        0.00472    0.68395    0.82710    1.000
    N121     N        0.11132    0.67738    0.89750    1.000
    N122     N        0.15285    0.73384    0.95170    1.000
    N123     N        0.07086    0.73900    0.83070    1.000
    N124     N        0.11147    0.79506    0.88500    1.000
    N125     N        0.16796    0.78778    0.04610    1.000
    N126     N        0.15590    0.82390    0.14320    1.000
    N127     N        0.12270    0.84814    0.98090    1.000
    N128     N        0.09920    0.87521    0.08240    1.000
    N129     N        0.11050    0.83610    0.24930    1.000
    N130     N        0.05470    0.81460    0.31940    1.000
    N131     N        0.05580    0.88631    0.18700    1.000
    N132     N        0.99810    0.87090    0.26380    1.000
    N133     N        0.98370    0.77110    0.35790    1.000
    N134     N        0.92730    0.71740    0.34040    1.000
    N135     N        0.92600    0.82980    0.30540    1.000
    N136     N        0.86420    0.77720    0.30400    1.000
    N137     N        0.87570    0.65491    0.27970    1.000
    N138     N        0.85410    0.60453    0.19600    1.000
    N139     N        0.82060    0.71550    0.24610    1.000
    N140     N        0.80960    0.67127    0.15250    1.000
    O62      O        0.94355    0.53548    0.09100    1.000
    O63      O        0.04927    0.56593    0.97643    1.000
    O64      O        0.13737    0.66235    0.00820    1.000
    O65      O        0.17380    0.74539    0.14800    1.000
    O66      O        0.11400    0.76123    0.30580    1.000
    O67      O        0.00200    0.69150    0.34440    1.000
    O68      O        0.92790    0.59732    0.24470    1.000
    O69      O        0.83638    0.70884    0.97090    1.000
    O70      O        0.94018    0.73441    0.84700    1.000
    O71      O        0.03754    0.81421    0.84260    1.000
    O72      O        0.05022    0.88627    0.98700    1.000
    O73      O        0.97450    0.89164    0.15300    1.000
    O74      O        0.86080    0.84468    0.23640    1.000
    O75      O        0.79781    0.75319    0.14900    1.000
    O76      O        0.52990    0.99070    0.74410    1.000
    Rb6      Rb       0.46502    0.93829    0.63724    1.000
    C211     C        0.41222    0.05719    0.55860    1.000
    C212     C        0.33927    0.09031    0.53060    1.000
    H211     H        0.30980    0.07100    0.52580    1.000
    C213     C        0.36922    0.08733    0.46630    1.000
    H212     H        0.35460    0.06630    0.43110    1.000
    C214     C        0.34479    0.16730    0.48280    1.000
    C215     C        0.44936    0.04892    0.44640    1.000
    H213     H        0.43310    0.03130    0.40960    1.000
    H214     H        0.46870    0.02610    0.47270    1.000
    C216     C        0.38735    0.14880    0.37440    1.000
    H215     H        0.37610    0.12430    0.34210    1.000
    H216     H        0.37290    0.17930    0.36090    1.000
    C217     C        0.52844    0.08810    0.43000    1.000
    C218     C        0.46780    0.11118    0.35640    1.000
    H217     H        0.45390    0.09010    0.32060    1.000
    C219     C        0.51550    0.13361    0.33130    1.000
    H218     H        0.52530    0.12060    0.28600    1.000
    C220     C        0.45880    0.19369    0.34830    1.000
    C221     C        0.59870    0.12834    0.38130    1.000
    H219     H        0.60980    0.12080    0.33460    1.000
    H220     H        0.61520    0.10690    0.41340    1.000
    C222     C        0.53460    0.21861    0.28990    1.000
    H221     H        0.54940    0.20260    0.25030    1.000
    H222     H        0.51420    0.24420    0.27210    1.000
    C223     C        0.63449    0.18801    0.45700    1.000
    C224     C        0.61599    0.21480    0.34630    1.000
    H223     H        0.63280    0.20380    0.30430    1.000
    C225     C        0.64434    0.25391    0.38620    1.000
    H224     H        0.67470    0.26160    0.36250    1.000
    C226     C        0.57051    0.28538    0.35270    1.000
    C227     C        0.68620    0.25170    0.49950    1.000
    H225     H        0.71320    0.26520    0.47400    1.000
    H226     H        0.69840    0.22490    0.52690    1.000
    C228     C        0.62530    0.34171    0.40760    1.000
    H227     H        0.60460    0.36530    0.38530    1.000
    H228     H        0.65810    0.34790    0.39240    1.000
    C229     C        0.66620    0.28100    0.61530    1.000
    C230     C        0.66260    0.33760    0.52410    1.000
    H229     H        0.69270    0.35050    0.50490    1.000
    C231     C        0.64940    0.36160    0.59210    1.000
    H230     H        0.66990    0.38960    0.60180    1.000
    C232     C        0.58690    0.37180    0.51490    1.000
    C233     C        0.65960    0.33370    0.71620    1.000
    H231     H        0.67630    0.36410    0.72310    1.000
    H232     H        0.67840    0.30840    0.73840    1.000
    C234     C        0.57420    0.40912    0.62780    1.000
    H233     H        0.59630    0.43440    0.64200    1.000
    H234     H        0.54790    0.42410    0.60230    1.000
    C235     C        0.59130    0.29890    0.79130    1.000
    C236     C        0.57910    0.37650    0.74970    1.000
    H235     H        0.59720    0.40510    0.76430    1.000
    C237     C        0.54270    0.36460    0.80400    1.000
    H236     H        0.54450    0.38580    0.84490    1.000
    C238     C        0.50910    0.38398    0.69620    1.000
    C239     C        0.53040    0.29030    0.87620    1.000
    H237     H        0.55070    0.26420    0.89250    1.000
    H238     H        0.52650    0.31290    0.91440    1.000
    C240     C        0.44760    0.37450    0.79100    1.000
    H239     H        0.44800    0.39360    0.83340    1.000
    H240     H        0.42800    0.39150    0.75710    1.000
    C241     C        0.47450    0.22200    0.84470    1.000
    C242     C        0.43570    0.29630    0.86150    1.000
    H241     H        0.43370    0.31380    0.90580    1.000
    C243     C        0.39690    0.25930    0.85990    1.000
    H242     H        0.38070    0.25520    0.90490    1.000
    C244     C        0.38250    0.32070    0.77890    1.000
    C245     C        0.40240    0.16910    0.84090    1.000
    H243     H        0.42670    0.14460    0.84950    1.000
    H244     H        0.38040    0.16860    0.88020    1.000
    C246     C        0.31960    0.25730    0.79100    1.000
    H245     H        0.29930    0.28180    0.76970    1.000
    H246     H        0.30500    0.24830    0.83500    1.000
    C247     C        0.38740    0.11610    0.73980    1.000
    C248     C        0.32520    0.16740    0.76690    1.000
    H247     H        0.30470    0.16000    0.80700    1.000
    C249     C        0.31370    0.13700    0.70660    1.000
    H248     H        0.28350    0.11930    0.71350    1.000
    C250     C        0.30700    0.21780    0.68040    1.000
    C251     C        0.35470    0.06227    0.65500    1.000
    H249     H        0.32270    0.04820    0.65480    1.000
    H250     H        0.37650    0.03910    0.67590    1.000
    C252     C        0.29040    0.16010    0.58430    1.000
    H251     H        0.26490    0.13630    0.58880    1.000
    H252     H        0.27650    0.18910    0.56410    1.000
    N141     N        0.36962    0.07115    0.58360    1.000
    N142     N        0.41481    0.06908    0.49040    1.000
    N143     N        0.32751    0.14171    0.53870    1.000
    N144     N        0.37132    0.13653    0.44370    1.000
    N145     N        0.48109    0.08470    0.41530    1.000
    N146     N        0.54820    0.11972    0.38530    1.000
    N147     N        0.43686    0.15263    0.36910    1.000
    N148     N        0.50472    0.18395    0.32710    1.000
    N149     N        0.61132    0.17738    0.39750    1.000
    N150     N        0.65285    0.23384    0.45170    1.000
    N151     N        0.57086    0.23900    0.33070    1.000
    N152     N        0.61147    0.29506    0.38500    1.000
    N153     N        0.66796    0.28778    0.54610    1.000
    N154     N        0.65590    0.32390    0.64320    1.000
    N155     N        0.62270    0.34814    0.48090    1.000
    N156     N        0.59920    0.37521    0.58240    1.000
    N157     N        0.61050    0.33610    0.74930    1.000
    N158     N        0.55470    0.31460    0.81940    1.000
    N159     N        0.55580    0.38631    0.68700    1.000
    N160     N        0.49810    0.37090    0.76380    1.000
    N161     N        0.48370    0.27110    0.85790    1.000
    N162     N        0.42730    0.21740    0.84040    1.000
    N163     N        0.42600    0.32980    0.80540    1.000
    N164     N        0.36420    0.27720    0.80400    1.000
    N165     N        0.37570    0.15491    0.77970    1.000
    N166     N        0.35410    0.10453    0.69600    1.000
    N167     N        0.32060    0.21550    0.74610    1.000
    N168     N        0.30960    0.17127    0.65250    1.000
    O77      O        0.44355    0.03548    0.59100    1.000
    O78      O        0.54927    0.06593    0.47643    1.000
    O79      O        0.63737    0.16235    0.50820    1.000
    O80      O        0.67380    0.24539    0.64800    1.000
    O81      O        0.61400    0.26123    0.80580    1.000
    O82      O        0.50200    0.19150    0.84440    1.000
    O83      O        0.42790    0.09732    0.74470    1.000
    O84      O        0.33638    0.20884    0.47090    1.000
    O85      O        0.44018    0.23441    0.34700    1.000
    O86      O        0.53754    0.31421    0.34260    1.000
    O87      O        0.55022    0.38627    0.48700    1.000
    O88      O        0.47450    0.39164    0.65300    1.000
    O89      O        0.36080    0.34468    0.73640    1.000
    O90      O        0.29781    0.25319    0.64900    1.000
    O91      O        0.47010    0.00930    0.74410    1.000
    Rb7      Rb       0.53498    0.06171    0.63724    1.000
    C253     C        0.58778    0.94281    0.55860    1.000
    C254     C        0.66073    0.90969    0.53060    1.000
    H253     H        0.69020    0.92900    0.52580    1.000
    C255     C        0.63078    0.91267    0.46630    1.000
    H254     H        0.64540    0.93370    0.43110    1.000
    C256     C        0.65521    0.83270    0.48280    1.000
    C257     C        0.55064    0.95108    0.44640    1.000
    H255     H        0.56690    0.96870    0.40960    1.000
    H256     H        0.53130    0.97390    0.47270    1.000
    C258     C        0.61265    0.85120    0.37440    1.000
    H257     H        0.62390    0.87570    0.34210    1.000
    H258     H        0.62710    0.82070    0.36090    1.000
    C259     C        0.47156    0.91190    0.43000    1.000
    C260     C        0.53220    0.88882    0.35640    1.000
    H259     H        0.54610    0.90990    0.32060    1.000
    C261     C        0.48450    0.86639    0.33130    1.000
    H260     H        0.47470    0.87940    0.28600    1.000
    C262     C        0.54120    0.80631    0.34830    1.000
    C263     C        0.40130    0.87166    0.38130    1.000
    H261     H        0.39020    0.87920    0.33460    1.000
    H262     H        0.38480    0.89310    0.41340    1.000
    C264     C        0.46540    0.78139    0.28990    1.000
    H263     H        0.45060    0.79740    0.25030    1.000
    H264     H        0.48580    0.75580    0.27210    1.000
    C265     C        0.36551    0.81199    0.45700    1.000
    C266     C        0.38401    0.78520    0.34630    1.000
    H265     H        0.36720    0.79620    0.30430    1.000
    C267     C        0.35566    0.74609    0.38620    1.000
    H266     H        0.32530    0.73840    0.36250    1.000
    C268     C        0.42949    0.71462    0.35270    1.000
    C269     C        0.31380    0.74830    0.49950    1.000
    H267     H        0.28680    0.73480    0.47400    1.000
    H268     H        0.30160    0.77510    0.52690    1.000
    C270     C        0.37470    0.65829    0.40760    1.000
    H269     H        0.39540    0.63470    0.38530    1.000
    H270     H        0.34190    0.65210    0.39240    1.000
    C271     C        0.33380    0.71900    0.61530    1.000
    C272     C        0.33740    0.66240    0.52410    1.000
    H271     H        0.30730    0.64950    0.50490    1.000
    C273     C        0.35060    0.63840    0.59210    1.000
    H272     H        0.33010    0.61040    0.60180    1.000
    C274     C        0.41310    0.62820    0.51490    1.000
    C275     C        0.34040    0.66630    0.71620    1.000
    H273     H        0.32370    0.63590    0.72310    1.000
    H274     H        0.32160    0.69160    0.73840    1.000
    C276     C        0.42580    0.59088    0.62780    1.000
    H275     H        0.40370    0.56560    0.64200    1.000
    H276     H        0.45210    0.57590    0.60230    1.000
    C277     C        0.40870    0.70110    0.79130    1.000
    C278     C        0.42090    0.62350    0.74970    1.000
    H277     H        0.40280    0.59490    0.76430    1.000
    C279     C        0.45730    0.63540    0.80400    1.000
    H278     H        0.45550    0.61420    0.84490    1.000
    C280     C        0.49090    0.61602    0.69620    1.000
    C281     C        0.46960    0.70970    0.87620    1.000
    H279     H        0.44930    0.73580    0.89250    1.000
    H280     H        0.47350    0.68710    0.91440    1.000
    C282     C        0.55240    0.62550    0.79100    1.000
    H281     H        0.55200    0.60640    0.83340    1.000
    H282     H        0.57200    0.60850    0.75710    1.000
    C283     C        0.52550    0.77800    0.84470    1.000
    C284     C        0.56430    0.70370    0.86150    1.000
    H283     H        0.56630    0.68620    0.90580    1.000
    C285     C        0.60310    0.74070    0.85990    1.000
    H284     H        0.61930    0.74480    0.90490    1.000
    C286     C        0.61750    0.67930    0.77890    1.000
    C287     C        0.59760    0.83090    0.84090    1.000
    H285     H        0.57330    0.85540    0.84950    1.000
    H286     H        0.61960    0.83140    0.88020    1.000
    C288     C        0.68040    0.74270    0.79100    1.000
    H287     H        0.70070    0.71820    0.76970    1.000
    H288     H        0.69500    0.75170    0.83500    1.000
    C289     C        0.61260    0.88390    0.73980    1.000
    C290     C        0.67480    0.83260    0.76690    1.000
    H289     H        0.69530    0.84000    0.80700    1.000
    C291     C        0.68630    0.86300    0.70660    1.000
    H290     H        0.71650    0.88070    0.71350    1.000
    C292     C        0.69300    0.78220    0.68040    1.000
    C293     C        0.64530    0.93773    0.65500    1.000
    H291     H        0.67730    0.95180    0.65480    1.000
    H292     H        0.62350    0.96090    0.67590    1.000
    C294     C        0.70960    0.83990    0.58430    1.000
    H293     H        0.73510    0.86370    0.58880    1.000
    H294     H        0.72350    0.81090    0.56410    1.000
    N169     N        0.63038    0.92885    0.58360    1.000
    N170     N        0.58519    0.93092    0.49040    1.000
    N171     N        0.67249    0.85829    0.53870    1.000
    N172     N        0.62868    0.86347    0.44370    1.000
    N173     N        0.51891    0.91530    0.41530    1.000
    N174     N        0.45180    0.88028    0.38530    1.000
    N175     N        0.56314    0.84737    0.36910    1.000
    N176     N        0.49528    0.81605    0.32710    1.000
    N177     N        0.38868    0.82262    0.39750    1.000
    N178     N        0.34715    0.76616    0.45170    1.000
    N179     N        0.42914    0.76100    0.33070    1.000
    N180     N        0.38853    0.70494    0.38500    1.000
    N181     N        0.33204    0.71222    0.54610    1.000
    N182     N        0.34410    0.67610    0.64320    1.000
    N183     N        0.37730    0.65186    0.48090    1.000
    N184     N        0.40080    0.62479    0.58240    1.000
    N185     N        0.38950    0.66390    0.74930    1.000
    N186     N        0.44530    0.68540    0.81940    1.000
    N187     N        0.44420    0.61369    0.68700    1.000
    N188     N        0.50190    0.62910    0.76380    1.000
    N189     N        0.51630    0.72890    0.85790    1.000
    N190     N        0.57270    0.78260    0.84040    1.000
    N191     N        0.57400    0.67020    0.80540    1.000
    N192     N        0.63580    0.72280    0.80400    1.000
    N193     N        0.62430    0.84509    0.77970    1.000
    N194     N        0.64590    0.89547    0.69600    1.000
    N195     N        0.67940    0.78450    0.74610    1.000
    N196     N        0.69040    0.82873    0.65250    1.000
    O92      O        0.55645    0.96452    0.59100    1.000
    O93      O        0.45073    0.93407    0.47643    1.000
    O94      O        0.36263    0.83765    0.50820    1.000
    O95      O        0.32620    0.75461    0.64800    1.000
    O96      O        0.38600    0.73877    0.80580    1.000
    O97      O        0.49800    0.80850    0.84440    1.000
    O98      O        0.57210    0.90268    0.74470    1.000
    O99      O        0.66362    0.79116    0.47090    1.000
    O100     O        0.55982    0.76559    0.34700    1.000
    O101     O        0.46246    0.68579    0.34260    1.000
    O102     O        0.44978    0.61373    0.48700    1.000
    O103     O        0.52550    0.60836    0.65300    1.000
    O104     O        0.63920    0.65532    0.73640    1.000
    O105     O        0.70219    0.74681    0.64900    1.000
    O106     O        0.97010    0.50930    0.24410    1.000
    Rb8      Rb       0.03498    0.56171    0.13724    1.000
    C295     C        0.08778    0.44281    0.05860    1.000
    C296     C        0.16073    0.40969    0.03060    1.000
    H295     H        0.19020    0.42900    0.02580    1.000
    C297     C        0.13078    0.41267    0.96630    1.000
    H296     H        0.14540    0.43370    0.93110    1.000
    C298     C        0.15521    0.33270    0.98280    1.000
    C299     C        0.05064    0.45108    0.94640    1.000
    H297     H        0.06690    0.46870    0.90960    1.000
    H298     H        0.03130    0.47390    0.97270    1.000
    C300     C        0.11265    0.35120    0.87440    1.000
    H299     H        0.12390    0.37570    0.84210    1.000
    H300     H        0.12710    0.32070    0.86090    1.000
    C301     C        0.97156    0.41190    0.93000    1.000
    C302     C        0.03220    0.38882    0.85640    1.000
    H301     H        0.04610    0.40990    0.82060    1.000
    C303     C        0.98450    0.36639    0.83130    1.000
    H302     H        0.97470    0.37940    0.78600    1.000
    C304     C        0.04120    0.30631    0.84830    1.000
    C305     C        0.90130    0.37166    0.88130    1.000
    H303     H        0.89020    0.37920    0.83460    1.000
    H304     H        0.88480    0.39310    0.91340    1.000
    C306     C        0.96540    0.28139    0.78990    1.000
    H305     H        0.95060    0.29740    0.75030    1.000
    H306     H        0.98580    0.25580    0.77210    1.000
    C307     C        0.86551    0.31199    0.95700    1.000
    C308     C        0.88401    0.28520    0.84630    1.000
    H307     H        0.86720    0.29620    0.80430    1.000
    C309     C        0.85566    0.24609    0.88620    1.000
    H308     H        0.82530    0.23840    0.86250    1.000
    C310     C        0.92949    0.21462    0.85270    1.000
    C311     C        0.81380    0.24830    0.99950    1.000
    H309     H        0.78680    0.23480    0.97400    1.000
    H310     H        0.80160    0.27510    0.02690    1.000
    C312     C        0.87470    0.15829    0.90760    1.000
    H311     H        0.89540    0.13470    0.88530    1.000
    H312     H        0.84190    0.15210    0.89240    1.000
    C313     C        0.83380    0.21900    0.11530    1.000
    C314     C        0.83740    0.16240    0.02410    1.000
    H313     H        0.80730    0.14950    0.00490    1.000
    C315     C        0.85060    0.13840    0.09210    1.000
    H314     H        0.83010    0.11040    0.10180    1.000
    C316     C        0.91310    0.12820    0.01490    1.000
    C317     C        0.84040    0.16630    0.21620    1.000
    H315     H        0.82370    0.13590    0.22310    1.000
    H316     H        0.82160    0.19160    0.23840    1.000
    C318     C        0.92580    0.09088    0.12780    1.000
    H317     H        0.90370    0.06560    0.14200    1.000
    H318     H        0.95210    0.07590    0.10230    1.000
    C319     C        0.90870    0.20110    0.29130    1.000
    C320     C        0.92090    0.12350    0.24970    1.000
    H319     H        0.90280    0.09490    0.26430    1.000
    C321     C        0.95730    0.13540    0.30400    1.000
    H320     H        0.95550    0.11420    0.34490    1.000
    C322     C        0.99090    0.11602    0.19620    1.000
    C323     C        0.96960    0.20970    0.37620    1.000
    H321     H        0.94930    0.23580    0.39250    1.000
    H322     H        0.97350    0.18710    0.41440    1.000
    C324     C        0.05240    0.12550    0.29100    1.000
    H323     H        0.05200    0.10640    0.33340    1.000
    H324     H        0.07200    0.10850    0.25710    1.000
    C325     C        0.02550    0.27800    0.34470    1.000
    C326     C        0.06430    0.20370    0.36150    1.000
    H325     H        0.06630    0.18620    0.40580    1.000
    C327     C        0.10310    0.24070    0.35990    1.000
    H326     H        0.11930    0.24480    0.40490    1.000
    C328     C        0.11750    0.17930    0.27890    1.000
    C329     C        0.09760    0.33090    0.34090    1.000
    H327     H        0.07330    0.35540    0.34950    1.000
    H328     H        0.11960    0.33140    0.38020    1.000
    C330     C        0.18040    0.24270    0.29100    1.000
    H329     H        0.20070    0.21820    0.26970    1.000
    H330     H        0.19500    0.25170    0.33500    1.000
    C331     C        0.11260    0.38390    0.23980    1.000
    C332     C        0.17480    0.33260    0.26690    1.000
    H331     H        0.19530    0.34000    0.30700    1.000
    C333     C        0.18630    0.36300    0.20660    1.000
    H332     H        0.21650    0.38070    0.21350    1.000
    C334     C        0.19300    0.28220    0.18040    1.000
    C335     C        0.14530    0.43773    0.15500    1.000
    H333     H        0.17730    0.45180    0.15480    1.000
    H334     H        0.12350    0.46090    0.17590    1.000
    C336     C        0.20960    0.33990    0.08430    1.000
    H335     H        0.23510    0.36370    0.08880    1.000
    H336     H        0.22350    0.31090    0.06410    1.000
    N197     N        0.13038    0.42885    0.08360    1.000
    N198     N        0.08519    0.43092    0.99040    1.000
    N199     N        0.17249    0.35829    0.03870    1.000
    N200     N        0.12868    0.36347    0.94370    1.000
    N201     N        0.01891    0.41530    0.91530    1.000
    N202     N        0.95180    0.38028    0.88530    1.000
    N203     N        0.06314    0.34737    0.86910    1.000
    N204     N        0.99528    0.31605    0.82710    1.000
    N205     N        0.88868    0.32262    0.89750    1.000
    N206     N        0.84715    0.26616    0.95170    1.000
    N207     N        0.92914    0.26100    0.83070    1.000
    N208     N        0.88853    0.20494    0.88500    1.000
    N209     N        0.83204    0.21222    0.04610    1.000
    N210     N        0.84410    0.17610    0.14320    1.000
    N211     N        0.87730    0.15186    0.98090    1.000
    N212     N        0.90080    0.12479    0.08240    1.000
    N213     N        0.88950    0.16390    0.24930    1.000
    N214     N        0.94530    0.18540    0.31940    1.000
    N215     N        0.94420    0.11369    0.18700    1.000
    N216     N        0.00190    0.12910    0.26380    1.000
    N217     N        0.01630    0.22890    0.35790    1.000
    N218     N        0.07270    0.28260    0.34040    1.000
    N219     N        0.07400    0.17020    0.30540    1.000
    N220     N        0.13580    0.22280    0.30400    1.000
    N221     N        0.12430    0.34509    0.27970    1.000
    N222     N        0.14590    0.39547    0.19600    1.000
    N223     N        0.17940    0.28450    0.24610    1.000
    N224     N        0.19040    0.32873    0.15250    1.000
    O107     O        0.05645    0.46452    0.09100    1.000
    O108     O        0.95073    0.43407    0.97643    1.000
    O109     O        0.86263    0.33765    0.00820    1.000
    O110     O        0.82620    0.25461    0.14800    1.000
    O111     O        0.88600    0.23877    0.30580    1.000
    O112     O        0.99800    0.30850    0.34440    1.000
    O113     O        0.07210    0.40268    0.24470    1.000
    O114     O        0.16362    0.29116    0.97090    1.000
    O115     O        0.05982    0.26559    0.84700    1.000
    O116     O        0.96246    0.18579    0.84260    1.000
    O117     O        0.94978    0.11373    0.98700    1.000
    O118     O        0.02550    0.10836    0.15300    1.000
    O119     O        0.13920    0.15532    0.23640    1.000
    O120     O        0.20219    0.24681    0.14900    1.000
