# CIF file generated by openbabel 3.1.0, see https://openbabel.org
data_I
_chemical_name_common 'image0'
_cell_length_a 8.5009
_cell_length_b 15.3652
_cell_length_c 13.374
_cell_angle_alpha 90
_cell_angle_beta 90
_cell_angle_gamma 90
_space_group_name_H-M_alt 'P 1'
_space_group_name_Hall 'P 1'
loop_
    _symmetry_equiv_pos_as_xyz
    x,y,z
loop_
    _atom_site_label
    _atom_site_type_symbol
    _atom_site_fract_x
    _atom_site_fract_y
    _atom_site_fract_z
    _atom_site_occupancy
    Be1      Be       0.53430    0.41127    0.39087    1.000
    P1       P        0.02744    0.09807    0.38781    1.000
    H1       H        0.15770    0.09020    0.33780    1.000
    P2       P        0.25290    0.36865    0.27254    1.000
    H2       H        0.16690    0.43850    0.26060    1.000
    O1       O        0.07181    0.12049    0.49494    1.000
    O2       O        0.93683    0.01426    0.37758    1.000
    O3       O        0.93716    0.17388    0.34073    1.000
    O4       O        0.14200    0.29438    0.29409    1.000
    O5       O        0.34447    0.35553    0.17718    1.000
    O6       O        0.35271    0.38425    0.36507    1.000
    Be2      Be       0.96570    0.08873    0.89087    1.000
    P3       P        0.47256    0.40193    0.88781    1.000
    H3       H        0.34230    0.40980    0.83780    1.000
    P4       P        0.24710    0.13135    0.77254    1.000
    H4       H        0.33310    0.06150    0.76060    1.000
    O7       O        0.42819    0.37951    0.99494    1.000
    O8       O        0.56317    0.48574    0.87758    1.000
    O9       O        0.56284    0.32612    0.84073    1.000
    O10      O        0.35800    0.20562    0.79409    1.000
    O11      O        0.15553    0.14447    0.67718    1.000
    O12      O        0.14729    0.11575    0.86507    1.000
    Be3      Be       0.46570    0.41127    0.10913    1.000
    P5       P        0.97256    0.09807    0.11219    1.000
    H5       H        0.84230    0.09020    0.16220    1.000
    P6       P        0.74710    0.36865    0.22746    1.000
    H6       H        0.83310    0.43850    0.23940    1.000
    O13      O        0.92819    0.12049    0.00506    1.000
    O14      O        0.06317    0.01426    0.12242    1.000
    O15      O        0.06284    0.17388    0.15927    1.000
    O16      O        0.85800    0.29438    0.20591    1.000
    O17      O        0.65553    0.35553    0.32282    1.000
    O18      O        0.64729    0.38425    0.13493    1.000
    Be4      Be       0.03430    0.08873    0.60913    1.000
    P7       P        0.52744    0.40193    0.61219    1.000
    H7       H        0.65770    0.40980    0.66220    1.000
    P8       P        0.75290    0.13135    0.72746    1.000
    H8       H        0.66690    0.06150    0.73940    1.000
    O19      O        0.57181    0.37951    0.50506    1.000
    O20      O        0.43683    0.48574    0.62242    1.000
    O21      O        0.43716    0.32612    0.65927    1.000
    O22      O        0.64200    0.20562    0.70591    1.000
    O23      O        0.84447    0.14447    0.82282    1.000
    O24      O        0.85271    0.11575    0.63493    1.000
    Be5      Be       0.46570    0.58873    0.60913    1.000
    P9       P        0.97256    0.90193    0.61219    1.000
    H9       H        0.84230    0.90980    0.66220    1.000
    P10      P        0.74710    0.63135    0.72746    1.000
    H10      H        0.83310    0.56150    0.73940    1.000
    O25      O        0.92819    0.87951    0.50506    1.000
    O26      O        0.06317    0.98574    0.62242    1.000
    O27      O        0.06284    0.82612    0.65927    1.000
    O28      O        0.85800    0.70562    0.70591    1.000
    O29      O        0.65553    0.64447    0.82282    1.000
    O30      O        0.64729    0.61575    0.63493    1.000
    Be6      Be       0.03430    0.91127    0.10913    1.000
    P11      P        0.52744    0.59807    0.11219    1.000
    H11      H        0.65770    0.59020    0.16220    1.000
    P12      P        0.75290    0.86865    0.22746    1.000
    H12      H        0.66690    0.93850    0.23940    1.000
    O31      O        0.57181    0.62049    0.00506    1.000
    O32      O        0.43683    0.51426    0.12242    1.000
    O33      O        0.43716    0.67388    0.15927    1.000
    O34      O        0.64200    0.79438    0.20591    1.000
    O35      O        0.84447    0.85553    0.32282    1.000
    O36      O        0.85271    0.88425    0.13493    1.000
    Be7      Be       0.53430    0.58873    0.89087    1.000
    P13      P        0.02744    0.90193    0.88781    1.000
    H13      H        0.15770    0.90980    0.83780    1.000
    P14      P        0.25290    0.63135    0.77254    1.000
    H14      H        0.16690    0.56150    0.76060    1.000
    O37      O        0.07181    0.87951    0.99494    1.000
    O38      O        0.93683    0.98574    0.87758    1.000
    O39      O        0.93716    0.82612    0.84073    1.000
    O40      O        0.14200    0.70562    0.79409    1.000
    O41      O        0.34447    0.64447    0.67718    1.000
    O42      O        0.35271    0.61575    0.86507    1.000
    Be8      Be       0.96570    0.91127    0.39087    1.000
    P15      P        0.47256    0.59807    0.38781    1.000
    H15      H        0.34230    0.59020    0.33780    1.000
    P16      P        0.24710    0.86865    0.27254    1.000
    H16      H        0.33310    0.93850    0.26060    1.000
    O43      O        0.42819    0.62049    0.49494    1.000
    O44      O        0.56317    0.51426    0.37758    1.000
    O45      O        0.56284    0.67388    0.34073    1.000
    O46      O        0.35800    0.79438    0.29409    1.000
    O47      O        0.15553    0.85553    0.17718    1.000
    O48      O        0.14729    0.88425    0.36507    1.000
    Be9      Be       0.00000    0.23710    0.25000    1.000
    Be10     Be       0.50000    0.26290    0.75000    1.000
    Be11     Be       0.00000    0.76290    0.75000    1.000
    Be12     Be       0.50000    0.73710    0.25000    1.000
