# CIF file generated by openbabel 3.1.0, see https://openbabel.org
data_I
_chemical_name_common 'image0'
_cell_length_a 24.028
_cell_length_b 13.413
_cell_length_c 24.048
_cell_angle_alpha 90
_cell_angle_beta 113.111
_cell_angle_gamma 90
_space_group_name_H-M_alt 'P 1'
_space_group_name_Hall 'P 1'
loop_
    _symmetry_equiv_pos_as_xyz
    x,y,z
loop_
    _atom_site_label
    _atom_site_type_symbol
    _atom_site_fract_x
    _atom_site_fract_y
    _atom_site_fract_z
    _atom_site_occupancy
    Co1      Co       0.38391    0.85265    0.95030    1.000
    O1       O        0.44353    0.20500    0.19124    1.000
    O2       O        0.37535    0.32442    0.17041    1.000
    O3       O        0.39594    0.92404    0.03524    1.000
    O4       O        0.30841    0.93933    0.95791    1.000
    O5       O        0.95958    0.14468    0.00788    1.000
    O6       O        0.96503    0.28822    0.96407    1.000
    N1       N        0.52707    0.39589    0.20130    1.000
    N2       N        0.56548    0.53101    0.17910    1.000
    N3       N        0.83595    0.68540    0.35934    1.000
    N4       N        0.75982    0.69961    0.27169    1.000
    N5       N        0.58659    0.01505    0.07944    1.000
    N6       N        0.59042    0.87134    0.12436    1.000
    C1       C        0.57798    0.70079    0.15180    1.000
    H1       H        0.53730    0.70240    0.12610    1.000
    C2       C        0.60320    0.61658    0.18600    1.000
    C3       C        0.66348    0.61320    0.22470    1.000
    H2       H        0.68000    0.55610    0.24700    1.000
    C4       C        0.69865    0.69680    0.22936    1.000
    C5       C        0.67514    0.78127    0.19526    1.000
    H3       H        0.69960    0.83640    0.19820    1.000
    C6       C        0.61530    0.78259    0.15711    1.000
    C7       C        0.57002    0.46321    0.22209    1.000
    H4       H        0.59960    0.46400    0.26120    1.000
    C8       C        0.49362    0.42200    0.14260    1.000
    H5       H        0.46020    0.38710    0.11640    1.000
    C9       C        0.51593    0.50500    0.12828    1.000
    H6       H        0.50100    0.53830    0.09140    1.000
    C10      C        0.77949    0.66260    0.32863    1.000
    H7       H        0.75570    0.62580    0.34380    1.000
    C11      C        0.85430    0.73960    0.32141    1.000
    H8       H        0.89290    0.76550    0.33120    1.000
    C12      C        0.80746    0.74940    0.26744    1.000
    H9       H        0.80760    0.78350    0.23380    1.000
    C13      C        0.62185    0.94180    0.10839    1.000
    H10      H        0.66310    0.93840    0.11690    1.000
    C14      C        0.53003    0.99140    0.07617    1.000
    H11      H        0.49560    0.03040    0.05770    1.000
    C15      C        0.53152    0.90380    0.10365    1.000
    H12      H        0.49910    0.87140    0.10780    1.000
    C16      C        0.39090    0.23980    0.16204    1.000
    C17      C        0.34638    0.17235    0.11614    1.000
    C18      C        0.36552    0.09227    0.09145    1.000
    H13      H        0.40650    0.07680    0.10540    1.000
    C19      C        0.32359    0.03532    0.04592    1.000
    C20      C        0.34360    0.96049    0.01162    1.000
    C21      C        0.26202    0.05455    0.02813    1.000
    H14      H        0.23400    0.01490    0.99860    1.000
    C22      C        0.24164    0.13180    0.05372    1.000
    C23      C        0.28506    0.19240    0.09632    1.000
    H15      H        0.27240    0.24750    0.11170    1.000
    C24      C        0.17648    0.15082    0.03610    1.000
    C25      C        0.15272    0.24669    0.02211    1.000
    H16      H        0.17850    0.29970    0.02430    1.000
    C26      C        0.09190    0.26446    0.00506    1.000
    H17      H        0.07700    0.32870    0.99450    1.000
    C27      C        0.05229    0.18733    0.00334    1.000
    C28      C        0.98743    0.20734    0.99042    1.000
    C29      C        0.07608    0.09123    0.01746    1.000
    H18      H        0.05060    0.03860    0.01670    1.000
    C30      C        0.13672    0.07303    0.03253    1.000
    H19      H        0.15130    0.00810    0.04040    1.000
    Co2      Co       0.88391    0.35265    0.95030    1.000
    O7       O        0.94353    0.70500    0.19124    1.000
    O8       O        0.87535    0.82442    0.17041    1.000
    O9       O        0.89594    0.42404    0.03524    1.000
    O10      O        0.80841    0.43933    0.95791    1.000
    O11      O        0.45958    0.64468    0.00788    1.000
    O12      O        0.46503    0.78822    0.96407    1.000
    N7       N        0.02707    0.89589    0.20130    1.000
    N8       N        0.06548    0.03101    0.17910    1.000
    N9       N        0.33595    0.18540    0.35934    1.000
    N10      N        0.25982    0.19961    0.27169    1.000
    N11      N        0.08659    0.51505    0.07944    1.000
    N12      N        0.09042    0.37134    0.12436    1.000
    C31      C        0.07798    0.20079    0.15180    1.000
    H20      H        0.03730    0.20240    0.12610    1.000
    C32      C        0.10320    0.11658    0.18600    1.000
    C33      C        0.16348    0.11320    0.22470    1.000
    H21      H        0.18000    0.05610    0.24700    1.000
    C34      C        0.19865    0.19680    0.22936    1.000
    C35      C        0.17514    0.28127    0.19526    1.000
    H22      H        0.19960    0.33640    0.19820    1.000
    C36      C        0.11530    0.28259    0.15711    1.000
    C37      C        0.07002    0.96321    0.22209    1.000
    H23      H        0.09960    0.96400    0.26120    1.000
    C38      C        0.99362    0.92200    0.14260    1.000
    H24      H        0.96020    0.88710    0.11640    1.000
    C39      C        0.01593    0.00500    0.12828    1.000
    H25      H        0.00100    0.03830    0.09140    1.000
    C40      C        0.27949    0.16260    0.32863    1.000
    H26      H        0.25570    0.12580    0.34380    1.000
    C41      C        0.35430    0.23960    0.32141    1.000
    H27      H        0.39290    0.26550    0.33120    1.000
    C42      C        0.30746    0.24940    0.26744    1.000
    H28      H        0.30760    0.28350    0.23380    1.000
    C43      C        0.12185    0.44180    0.10839    1.000
    H29      H        0.16310    0.43840    0.11690    1.000
    C44      C        0.03003    0.49140    0.07617    1.000
    H30      H        0.99560    0.53040    0.05770    1.000
    C45      C        0.03152    0.40380    0.10365    1.000
    H31      H        0.99910    0.37140    0.10780    1.000
    C46      C        0.89090    0.73980    0.16204    1.000
    C47      C        0.84638    0.67235    0.11614    1.000
    C48      C        0.86552    0.59227    0.09145    1.000
    H32      H        0.90650    0.57680    0.10540    1.000
    C49      C        0.82359    0.53532    0.04592    1.000
    C50      C        0.84360    0.46049    0.01162    1.000
    C51      C        0.76202    0.55455    0.02813    1.000
    H33      H        0.73400    0.51490    0.99860    1.000
    C52      C        0.74164    0.63180    0.05372    1.000
    C53      C        0.78506    0.69240    0.09632    1.000
    H34      H        0.77240    0.74750    0.11170    1.000
    C54      C        0.67648    0.65082    0.03610    1.000
    C55      C        0.65272    0.74669    0.02211    1.000
    H35      H        0.67850    0.79970    0.02430    1.000
    C56      C        0.59190    0.76446    0.00506    1.000
    H36      H        0.57700    0.82870    0.99450    1.000
    C57      C        0.55229    0.68733    0.00334    1.000
    C58      C        0.48743    0.70734    0.99042    1.000
    C59      C        0.57608    0.59123    0.01746    1.000
    H37      H        0.55060    0.53860    0.01670    1.000
    C60      C        0.63672    0.57303    0.03253    1.000
    H38      H        0.65130    0.50810    0.04040    1.000
    Co3      Co       0.61609    0.85265    0.54970    1.000
    O13      O        0.55647    0.20500    0.30876    1.000
    O14      O        0.62465    0.32442    0.32959    1.000
    O15      O        0.60406    0.92404    0.46476    1.000
    O16      O        0.69159    0.93933    0.54209    1.000
    O17      O        0.04042    0.14468    0.49212    1.000
    O18      O        0.03497    0.28822    0.53593    1.000
    N13      N        0.47293    0.39589    0.29870    1.000
    N14      N        0.43452    0.53101    0.32090    1.000
    N15      N        0.16405    0.68540    0.14066    1.000
    N16      N        0.24018    0.69961    0.22831    1.000
    N17      N        0.41341    0.01505    0.42056    1.000
    N18      N        0.40958    0.87134    0.37564    1.000
    C61      C        0.42202    0.70079    0.34820    1.000
    H39      H        0.46270    0.70240    0.37390    1.000
    C62      C        0.39680    0.61658    0.31400    1.000
    C63      C        0.33652    0.61320    0.27530    1.000
    H40      H        0.32000    0.55610    0.25300    1.000
    C64      C        0.30135    0.69680    0.27064    1.000
    C65      C        0.32486    0.78127    0.30474    1.000
    H41      H        0.30040    0.83640    0.30180    1.000
    C66      C        0.38470    0.78259    0.34289    1.000
    C67      C        0.42998    0.46321    0.27791    1.000
    H42      H        0.40040    0.46400    0.23880    1.000
    C68      C        0.50638    0.42200    0.35740    1.000
    H43      H        0.53980    0.38710    0.38360    1.000
    C69      C        0.48407    0.50500    0.37172    1.000
    H44      H        0.49900    0.53830    0.40860    1.000
    C70      C        0.22051    0.66260    0.17137    1.000
    H45      H        0.24430    0.62580    0.15620    1.000
    C71      C        0.14570    0.73960    0.17859    1.000
    H46      H        0.10710    0.76550    0.16880    1.000
    C72      C        0.19254    0.74940    0.23256    1.000
    H47      H        0.19240    0.78350    0.26620    1.000
    C73      C        0.37815    0.94180    0.39161    1.000
    H48      H        0.33690    0.93840    0.38310    1.000
    C74      C        0.46997    0.99140    0.42383    1.000
    H49      H        0.50440    0.03040    0.44230    1.000
    C75      C        0.46848    0.90380    0.39635    1.000
    H50      H        0.50090    0.87140    0.39220    1.000
    C76      C        0.60910    0.23980    0.33796    1.000
    C77      C        0.65362    0.17235    0.38386    1.000
    C78      C        0.63448    0.09227    0.40855    1.000
    H51      H        0.59350    0.07680    0.39460    1.000
    C79      C        0.67641    0.03532    0.45408    1.000
    C80      C        0.65640    0.96049    0.48838    1.000
    C81      C        0.73798    0.05455    0.47187    1.000
    H52      H        0.76600    0.01490    0.50140    1.000
    C82      C        0.75836    0.13180    0.44628    1.000
    C83      C        0.71494    0.19240    0.40368    1.000
    H53      H        0.72760    0.24750    0.38830    1.000
    C84      C        0.82352    0.15082    0.46390    1.000
    C85      C        0.84728    0.24669    0.47789    1.000
    H54      H        0.82150    0.29970    0.47570    1.000
    C86      C        0.90810    0.26446    0.49494    1.000
    H55      H        0.92300    0.32870    0.50550    1.000
    C87      C        0.94771    0.18733    0.49666    1.000
    C88      C        0.01257    0.20734    0.50958    1.000
    C89      C        0.92392    0.09123    0.48254    1.000
    H56      H        0.94940    0.03860    0.48330    1.000
    C90      C        0.86328    0.07303    0.46747    1.000
    H57      H        0.84870    0.00810    0.45960    1.000
    Co4      Co       0.11609    0.35265    0.54970    1.000
    O19      O        0.05647    0.70500    0.30876    1.000
    O20      O        0.12465    0.82442    0.32959    1.000
    O21      O        0.10406    0.42404    0.46476    1.000
    O22      O        0.19159    0.43933    0.54209    1.000
    O23      O        0.54042    0.64468    0.49212    1.000
    O24      O        0.53497    0.78822    0.53593    1.000
    N19      N        0.97293    0.89589    0.29870    1.000
    N20      N        0.93452    0.03101    0.32090    1.000
    N21      N        0.66405    0.18540    0.14066    1.000
    N22      N        0.74018    0.19961    0.22831    1.000
    N23      N        0.91341    0.51505    0.42056    1.000
    N24      N        0.90958    0.37134    0.37564    1.000
    C91      C        0.92202    0.20079    0.34820    1.000
    H58      H        0.96270    0.20240    0.37390    1.000
    C92      C        0.89680    0.11658    0.31400    1.000
    C93      C        0.83652    0.11320    0.27530    1.000
    H59      H        0.82000    0.05610    0.25300    1.000
    C94      C        0.80135    0.19680    0.27064    1.000
    C95      C        0.82486    0.28127    0.30474    1.000
    H60      H        0.80040    0.33640    0.30180    1.000
    C96      C        0.88470    0.28259    0.34289    1.000
    C97      C        0.92998    0.96321    0.27791    1.000
    H61      H        0.90040    0.96400    0.23880    1.000
    C98      C        0.00638    0.92200    0.35740    1.000
    H62      H        0.03980    0.88710    0.38360    1.000
    C99      C        0.98407    0.00500    0.37172    1.000
    H63      H        0.99900    0.03830    0.40860    1.000
    C100     C        0.72051    0.16260    0.17137    1.000
    H64      H        0.74430    0.12580    0.15620    1.000
    C101     C        0.64570    0.23960    0.17859    1.000
    H65      H        0.60710    0.26550    0.16880    1.000
    C102     C        0.69254    0.24940    0.23256    1.000
    H66      H        0.69240    0.28350    0.26620    1.000
    C103     C        0.87815    0.44180    0.39161    1.000
    H67      H        0.83690    0.43840    0.38310    1.000
    C104     C        0.96997    0.49140    0.42383    1.000
    H68      H        0.00440    0.53040    0.44230    1.000
    C105     C        0.96848    0.40380    0.39635    1.000
    H69      H        0.00090    0.37140    0.39220    1.000
    C106     C        0.10910    0.73980    0.33796    1.000
    C107     C        0.15362    0.67235    0.38386    1.000
    C108     C        0.13448    0.59227    0.40855    1.000
    H70      H        0.09350    0.57680    0.39460    1.000
    C109     C        0.17641    0.53532    0.45408    1.000
    C110     C        0.15640    0.46049    0.48838    1.000
    C111     C        0.23798    0.55455    0.47187    1.000
    H71      H        0.26600    0.51490    0.50140    1.000
    C112     C        0.25836    0.63180    0.44628    1.000
    C113     C        0.21494    0.69240    0.40368    1.000
    H72      H        0.22760    0.74750    0.38830    1.000
    C114     C        0.32352    0.65082    0.46390    1.000
    C115     C        0.34728    0.74669    0.47789    1.000
    H73      H        0.32150    0.79970    0.47570    1.000
    C116     C        0.40810    0.76446    0.49494    1.000
    H74      H        0.42300    0.82870    0.50550    1.000
    C117     C        0.44771    0.68733    0.49666    1.000
    C118     C        0.51257    0.70734    0.50958    1.000
    C119     C        0.42392    0.59123    0.48254    1.000
    H75      H        0.44940    0.53860    0.48330    1.000
    C120     C        0.36328    0.57303    0.46747    1.000
    H76      H        0.34870    0.50810    0.45960    1.000
    Co5      Co       0.61609    0.14735    0.04970    1.000
    O25      O        0.55647    0.79500    0.80876    1.000
    O26      O        0.62465    0.67558    0.82959    1.000
    O27      O        0.60406    0.07596    0.96476    1.000
    O28      O        0.69159    0.06067    0.04209    1.000
    O29      O        0.04042    0.85532    0.99212    1.000
    O30      O        0.03497    0.71178    0.03593    1.000
    N25      N        0.47293    0.60411    0.79870    1.000
    N26      N        0.43452    0.46899    0.82090    1.000
    N27      N        0.16405    0.31460    0.64066    1.000
    N28      N        0.24018    0.30039    0.72831    1.000
    N29      N        0.41341    0.98495    0.92056    1.000
    N30      N        0.40958    0.12866    0.87564    1.000
    C121     C        0.42202    0.29921    0.84820    1.000
    H77      H        0.46270    0.29760    0.87390    1.000
    C122     C        0.39680    0.38342    0.81400    1.000
    C123     C        0.33652    0.38680    0.77530    1.000
    H78      H        0.32000    0.44390    0.75300    1.000
    C124     C        0.30135    0.30320    0.77064    1.000
    C125     C        0.32486    0.21873    0.80474    1.000
    H79      H        0.30040    0.16360    0.80180    1.000
    C126     C        0.38470    0.21741    0.84289    1.000
    C127     C        0.42998    0.53679    0.77791    1.000
    H80      H        0.40040    0.53600    0.73880    1.000
    C128     C        0.50638    0.57800    0.85740    1.000
    H81      H        0.53980    0.61290    0.88360    1.000
    C129     C        0.48407    0.49500    0.87172    1.000
    H82      H        0.49900    0.46170    0.90860    1.000
    C130     C        0.22051    0.33740    0.67137    1.000
    H83      H        0.24430    0.37420    0.65620    1.000
    C131     C        0.14570    0.26040    0.67859    1.000
    H84      H        0.10710    0.23450    0.66880    1.000
    C132     C        0.19254    0.25060    0.73256    1.000
    H85      H        0.19240    0.21650    0.76620    1.000
    C133     C        0.37815    0.05820    0.89161    1.000
    H86      H        0.33690    0.06160    0.88310    1.000
    C134     C        0.46997    0.00860    0.92383    1.000
    H87      H        0.50440    0.96960    0.94230    1.000
    C135     C        0.46848    0.09620    0.89635    1.000
    H88      H        0.50090    0.12860    0.89220    1.000
    C136     C        0.60910    0.76020    0.83796    1.000
    C137     C        0.65362    0.82765    0.88386    1.000
    C138     C        0.63448    0.90773    0.90855    1.000
    H89      H        0.59350    0.92320    0.89460    1.000
    C139     C        0.67641    0.96468    0.95408    1.000
    C140     C        0.65640    0.03951    0.98838    1.000
    C141     C        0.73798    0.94545    0.97187    1.000
    H90      H        0.76600    0.98510    0.00140    1.000
    C142     C        0.75836    0.86820    0.94628    1.000
    C143     C        0.71494    0.80760    0.90368    1.000
    H91      H        0.72760    0.75250    0.88830    1.000
    C144     C        0.82352    0.84918    0.96390    1.000
    C145     C        0.84728    0.75331    0.97789    1.000
    H92      H        0.82150    0.70030    0.97570    1.000
    C146     C        0.90810    0.73554    0.99494    1.000
    H93      H        0.92300    0.67130    0.00550    1.000
    C147     C        0.94771    0.81267    0.99666    1.000
    C148     C        0.01257    0.79266    0.00958    1.000
    C149     C        0.92392    0.90877    0.98254    1.000
    H94      H        0.94940    0.96140    0.98330    1.000
    C150     C        0.86328    0.92697    0.96747    1.000
    H95      H        0.84870    0.99190    0.95960    1.000
    Co6      Co       0.11609    0.64735    0.04970    1.000
    O31      O        0.05647    0.29500    0.80876    1.000
    O32      O        0.12465    0.17558    0.82959    1.000
    O33      O        0.10406    0.57596    0.96476    1.000
    O34      O        0.19159    0.56067    0.04209    1.000
    O35      O        0.54042    0.35532    0.99212    1.000
    O36      O        0.53497    0.21178    0.03593    1.000
    N31      N        0.97293    0.10411    0.79870    1.000
    N32      N        0.93452    0.96899    0.82090    1.000
    N33      N        0.66405    0.81460    0.64066    1.000
    N34      N        0.74018    0.80039    0.72831    1.000
    N35      N        0.91341    0.48495    0.92056    1.000
    N36      N        0.90958    0.62866    0.87564    1.000
    C151     C        0.92202    0.79921    0.84820    1.000
    H96      H        0.96270    0.79760    0.87390    1.000
    C152     C        0.89680    0.88342    0.81400    1.000
    C153     C        0.83652    0.88680    0.77530    1.000
    H97      H        0.82000    0.94390    0.75300    1.000
    C154     C        0.80135    0.80320    0.77064    1.000
    C155     C        0.82486    0.71873    0.80474    1.000
    H98      H        0.80040    0.66360    0.80180    1.000
    C156     C        0.88470    0.71741    0.84289    1.000
    C157     C        0.92998    0.03679    0.77791    1.000
    H99      H        0.90040    0.03600    0.73880    1.000
    C158     C        0.00638    0.07800    0.85740    1.000
    H100     H        0.03980    0.11290    0.88360    1.000
    C159     C        0.98407    0.99500    0.87172    1.000
    H101     H        0.99900    0.96170    0.90860    1.000
    C160     C        0.72051    0.83740    0.67137    1.000
    H102     H        0.74430    0.87420    0.65620    1.000
    C161     C        0.64570    0.76040    0.67859    1.000
    H103     H        0.60710    0.73450    0.66880    1.000
    C162     C        0.69254    0.75060    0.73256    1.000
    H104     H        0.69240    0.71650    0.76620    1.000
    C163     C        0.87815    0.55820    0.89161    1.000
    H105     H        0.83690    0.56160    0.88310    1.000
    C164     C        0.96997    0.50860    0.92383    1.000
    H106     H        0.00440    0.46960    0.94230    1.000
    C165     C        0.96848    0.59620    0.89635    1.000
    H107     H        0.00090    0.62860    0.89220    1.000
    C166     C        0.10910    0.26020    0.83796    1.000
    C167     C        0.15362    0.32765    0.88386    1.000
    C168     C        0.13448    0.40773    0.90855    1.000
    H108     H        0.09350    0.42320    0.89460    1.000
    C169     C        0.17641    0.46468    0.95408    1.000
    C170     C        0.15640    0.53951    0.98838    1.000
    C171     C        0.23798    0.44545    0.97187    1.000
    H109     H        0.26600    0.48510    0.00140    1.000
    C172     C        0.25836    0.36820    0.94628    1.000
    C173     C        0.21494    0.30760    0.90368    1.000
    H110     H        0.22760    0.25250    0.88830    1.000
    C174     C        0.32352    0.34918    0.96390    1.000
    C175     C        0.34728    0.25331    0.97789    1.000
    H111     H        0.32150    0.20030    0.97570    1.000
    C176     C        0.40810    0.23554    0.99494    1.000
    H112     H        0.42300    0.17130    0.00550    1.000
    C177     C        0.44771    0.31267    0.99666    1.000
    C178     C        0.51257    0.29266    0.00958    1.000
    C179     C        0.42392    0.40877    0.98254    1.000
    H113     H        0.44940    0.46140    0.98330    1.000
    C180     C        0.36328    0.42697    0.96747    1.000
    H114     H        0.34870    0.49190    0.95960    1.000
    Co7      Co       0.38391    0.14735    0.45030    1.000
    O37      O        0.44353    0.79500    0.69124    1.000
    O38      O        0.37535    0.67558    0.67041    1.000
    O39      O        0.39594    0.07596    0.53524    1.000
    O40      O        0.30841    0.06067    0.45791    1.000
    O41      O        0.95958    0.85532    0.50788    1.000
    O42      O        0.96503    0.71178    0.46407    1.000
    N37      N        0.52707    0.60411    0.70130    1.000
    N38      N        0.56548    0.46899    0.67910    1.000
    N39      N        0.83595    0.31460    0.85934    1.000
    N40      N        0.75982    0.30039    0.77169    1.000
    N41      N        0.58659    0.98495    0.57944    1.000
    N42      N        0.59042    0.12866    0.62436    1.000
    C181     C        0.57798    0.29921    0.65180    1.000
    H115     H        0.53730    0.29760    0.62610    1.000
    C182     C        0.60320    0.38342    0.68600    1.000
    C183     C        0.66348    0.38680    0.72470    1.000
    H116     H        0.68000    0.44390    0.74700    1.000
    C184     C        0.69865    0.30320    0.72936    1.000
    C185     C        0.67514    0.21873    0.69526    1.000
    H117     H        0.69960    0.16360    0.69820    1.000
    C186     C        0.61530    0.21741    0.65711    1.000
    C187     C        0.57002    0.53679    0.72209    1.000
    H118     H        0.59960    0.53600    0.76120    1.000
    C188     C        0.49362    0.57800    0.64260    1.000
    H119     H        0.46020    0.61290    0.61640    1.000
    C189     C        0.51593    0.49500    0.62828    1.000
    H120     H        0.50100    0.46170    0.59140    1.000
    C190     C        0.77949    0.33740    0.82863    1.000
    H121     H        0.75570    0.37420    0.84380    1.000
    C191     C        0.85430    0.26040    0.82141    1.000
    H122     H        0.89290    0.23450    0.83120    1.000
    C192     C        0.80746    0.25060    0.76744    1.000
    H123     H        0.80760    0.21650    0.73380    1.000
    C193     C        0.62185    0.05820    0.60839    1.000
    H124     H        0.66310    0.06160    0.61690    1.000
    C194     C        0.53003    0.00860    0.57617    1.000
    H125     H        0.49560    0.96960    0.55770    1.000
    C195     C        0.53152    0.09620    0.60365    1.000
    H126     H        0.49910    0.12860    0.60780    1.000
    C196     C        0.39090    0.76020    0.66204    1.000
    C197     C        0.34638    0.82765    0.61614    1.000
    C198     C        0.36552    0.90773    0.59145    1.000
    H127     H        0.40650    0.92320    0.60540    1.000
    C199     C        0.32359    0.96468    0.54592    1.000
    C200     C        0.34360    0.03951    0.51162    1.000
    C201     C        0.26202    0.94545    0.52813    1.000
    H128     H        0.23400    0.98510    0.49860    1.000
    C202     C        0.24164    0.86820    0.55372    1.000
    C203     C        0.28506    0.80760    0.59632    1.000
    H129     H        0.27240    0.75250    0.61170    1.000
    C204     C        0.17648    0.84918    0.53610    1.000
    C205     C        0.15272    0.75331    0.52211    1.000
    H130     H        0.17850    0.70030    0.52430    1.000
    C206     C        0.09190    0.73554    0.50506    1.000
    H131     H        0.07700    0.67130    0.49450    1.000
    C207     C        0.05229    0.81267    0.50334    1.000
    C208     C        0.98743    0.79266    0.49042    1.000
    C209     C        0.07608    0.90877    0.51746    1.000
    H132     H        0.05060    0.96140    0.51670    1.000
    C210     C        0.13672    0.92697    0.53253    1.000
    H133     H        0.15130    0.99190    0.54040    1.000
    Co8      Co       0.88391    0.64735    0.45030    1.000
    O43      O        0.94353    0.29500    0.69124    1.000
    O44      O        0.87535    0.17558    0.67041    1.000
    O45      O        0.89594    0.57596    0.53524    1.000
    O46      O        0.80841    0.56067    0.45791    1.000
    O47      O        0.45958    0.35532    0.50788    1.000
    O48      O        0.46503    0.21178    0.46407    1.000
    N43      N        0.02707    0.10411    0.70130    1.000
    N44      N        0.06548    0.96899    0.67910    1.000
    N45      N        0.33595    0.81460    0.85934    1.000
    N46      N        0.25982    0.80039    0.77169    1.000
    N47      N        0.08659    0.48495    0.57944    1.000
    N48      N        0.09042    0.62866    0.62436    1.000
    C211     C        0.07798    0.79921    0.65180    1.000
    H134     H        0.03730    0.79760    0.62610    1.000
    C212     C        0.10320    0.88342    0.68600    1.000
    C213     C        0.16348    0.88680    0.72470    1.000
    H135     H        0.18000    0.94390    0.74700    1.000
    C214     C        0.19865    0.80320    0.72936    1.000
    C215     C        0.17514    0.71873    0.69526    1.000
    H136     H        0.19960    0.66360    0.69820    1.000
    C216     C        0.11530    0.71741    0.65711    1.000
    C217     C        0.07002    0.03679    0.72209    1.000
    H137     H        0.09960    0.03600    0.76120    1.000
    C218     C        0.99362    0.07800    0.64260    1.000
    H138     H        0.96020    0.11290    0.61640    1.000
    C219     C        0.01593    0.99500    0.62828    1.000
    H139     H        0.00100    0.96170    0.59140    1.000
    C220     C        0.27949    0.83740    0.82863    1.000
    H140     H        0.25570    0.87420    0.84380    1.000
    C221     C        0.35430    0.76040    0.82141    1.000
    H141     H        0.39290    0.73450    0.83120    1.000
    C222     C        0.30746    0.75060    0.76744    1.000
    H142     H        0.30760    0.71650    0.73380    1.000
    C223     C        0.12185    0.55820    0.60839    1.000
    H143     H        0.16310    0.56160    0.61690    1.000
    C224     C        0.03003    0.50860    0.57617    1.000
    H144     H        0.99560    0.46960    0.55770    1.000
    C225     C        0.03152    0.59620    0.60365    1.000
    H145     H        0.99910    0.62860    0.60780    1.000
    C226     C        0.89090    0.26020    0.66204    1.000
    C227     C        0.84638    0.32765    0.61614    1.000
    C228     C        0.86552    0.40773    0.59145    1.000
    H146     H        0.90650    0.42320    0.60540    1.000
    C229     C        0.82359    0.46468    0.54592    1.000
    C230     C        0.84360    0.53951    0.51162    1.000
    C231     C        0.76202    0.44545    0.52813    1.000
    H147     H        0.73400    0.48510    0.49860    1.000
    C232     C        0.74164    0.36820    0.55372    1.000
    C233     C        0.78506    0.30760    0.59632    1.000
    H148     H        0.77240    0.25250    0.61170    1.000
    C234     C        0.67648    0.34918    0.53610    1.000
    C235     C        0.65272    0.25331    0.52211    1.000
    H149     H        0.67850    0.20030    0.52430    1.000
    C236     C        0.59190    0.23554    0.50506    1.000
    H150     H        0.57700    0.17130    0.49450    1.000
    C237     C        0.55229    0.31267    0.50334    1.000
    C238     C        0.48743    0.29266    0.49042    1.000
    C239     C        0.57608    0.40877    0.51746    1.000
    H151     H        0.55060    0.46140    0.51670    1.000
    C240     C        0.63672    0.42697    0.53253    1.000
    H152     H        0.65130    0.49190    0.54040    1.000
    Co9      Co       0.50000    0.29648    0.25000    1.000
    Co10     Co       0.00000    0.79648    0.25000    1.000
    Co11     Co       0.50000    0.70352    0.75000    1.000
    Co12     Co       0.00000    0.20352    0.75000    1.000
