# CIF file generated by openbabel 3.1.0, see https://openbabel.org
data_I
_chemical_name_common 'image0'
_cell_length_a 22.538
_cell_length_b 7.044
_cell_length_c 13.772
_cell_angle_alpha 90
_cell_angle_beta 90
_cell_angle_gamma 90
_space_group_name_H-M_alt 'P 1'
_space_group_name_Hall 'P 1'
loop_
    _symmetry_equiv_pos_as_xyz
    x,y,z
loop_
    _atom_site_label
    _atom_site_type_symbol
    _atom_site_fract_x
    _atom_site_fract_y
    _atom_site_fract_z
    _atom_site_occupancy
    N1       N        0.93758    0.34430    0.93610    1.000
    H1       H        0.87830    0.53310    0.87820    1.000
    C1       C        0.88937    0.40460    0.88870    1.000
    C2       C        0.77640    0.41250    0.77730    1.000
    H2       H        0.79340    0.53040    0.79600    1.000
    N2       N        0.88937    0.09540    0.88870    1.000
    N3       N        0.43758    0.84430    0.43610    1.000
    H3       H        0.37830    0.03310    0.37820    1.000
    C3       C        0.38937    0.90460    0.38870    1.000
    C4       C        0.27640    0.91250    0.27730    1.000
    H4       H        0.29340    0.03040    0.29600    1.000
    N4       N        0.38937    0.59540    0.38870    1.000
    N5       N        0.06242    0.15570    0.93610    1.000
    H5       H        0.12170    0.96690    0.87820    1.000
    C5       C        0.11063    0.09540    0.88870    1.000
    C6       C        0.22360    0.08750    0.77730    1.000
    H6       H        0.20660    0.96960    0.79600    1.000
    N6       N        0.11063    0.40460    0.88870    1.000
    N7       N        0.56242    0.65570    0.43610    1.000
    H7       H        0.62170    0.46690    0.37820    1.000
    C7       C        0.61063    0.59540    0.38870    1.000
    C8       C        0.72360    0.58750    0.27730    1.000
    H8       H        0.70660    0.46960    0.29600    1.000
    N8       N        0.61063    0.90460    0.38870    1.000
    N9       N        0.06242    0.84430    0.06390    1.000
    H9       H        0.12170    0.03310    0.12180    1.000
    C9       C        0.11063    0.90460    0.11130    1.000
    C10      C        0.22360    0.91250    0.22270    1.000
    H10      H        0.20660    0.03040    0.20400    1.000
    N10      N        0.11063    0.59540    0.11130    1.000
    N11      N        0.56242    0.34430    0.56390    1.000
    H11      H        0.62170    0.53310    0.62180    1.000
    C11      C        0.61063    0.40460    0.61130    1.000
    C12      C        0.72360    0.41250    0.72270    1.000
    H12      H        0.70660    0.53040    0.70400    1.000
    N12      N        0.61063    0.09540    0.61130    1.000
    N13      N        0.93758    0.65570    0.06390    1.000
    H13      H        0.87830    0.46690    0.12180    1.000
    C13      C        0.88937    0.59540    0.11130    1.000
    C14      C        0.77640    0.58750    0.22270    1.000
    H14      H        0.79340    0.46960    0.20400    1.000
    N14      N        0.88937    0.90460    0.11130    1.000
    N15      N        0.43758    0.15570    0.56390    1.000
    H15      H        0.37830    0.96690    0.62180    1.000
    C15      C        0.38937    0.09540    0.61130    1.000
    C16      C        0.27640    0.08750    0.72270    1.000
    H16      H        0.29340    0.96960    0.70400    1.000
    N16      N        0.38937    0.40460    0.61130    1.000
    N17      N        0.06242    0.65570    0.06390    1.000
    H17      H        0.12170    0.46690    0.12180    1.000
    C17      C        0.22360    0.58750    0.22270    1.000
    H18      H        0.20660    0.46960    0.20400    1.000
    N18      N        0.56242    0.15570    0.56390    1.000
    H19      H        0.62170    0.96690    0.62180    1.000
    C18      C        0.72360    0.08750    0.72270    1.000
    H20      H        0.70660    0.96960    0.70400    1.000
    N19      N        0.93758    0.84430    0.06390    1.000
    H21      H        0.87830    0.03310    0.12180    1.000
    C19      C        0.77640    0.91250    0.22270    1.000
    H22      H        0.79340    0.03040    0.20400    1.000
    N20      N        0.43758    0.34430    0.56390    1.000
    H23      H        0.37830    0.53310    0.62180    1.000
    C20      C        0.27640    0.41250    0.72270    1.000
    H24      H        0.29340    0.53040    0.70400    1.000
    N21      N        0.93758    0.15570    0.93610    1.000
    H25      H        0.87830    0.96690    0.87820    1.000
    C21      C        0.77640    0.08750    0.77730    1.000
    H26      H        0.79340    0.96960    0.79600    1.000
    N22      N        0.43758    0.65570    0.43610    1.000
    H27      H        0.37830    0.46690    0.37820    1.000
    C22      C        0.27640    0.58750    0.27730    1.000
    H28      H        0.29340    0.46960    0.29600    1.000
    N23      N        0.06242    0.34430    0.93610    1.000
    H29      H        0.12170    0.53310    0.87820    1.000
    C23      C        0.22360    0.41250    0.77730    1.000
    H30      H        0.20660    0.53040    0.79600    1.000
    N24      N        0.56242    0.84430    0.43610    1.000
    H31      H        0.62170    0.03310    0.37820    1.000
    C24      C        0.72360    0.91250    0.27730    1.000
    H32      H        0.70660    0.03040    0.29600    1.000
    Cu1      Cu       0.00000    0.50000    0.00000    1.000
    Cu2      Cu       0.50000    0.00000    0.50000    1.000
    Cu3      Cu       0.00000    0.00000    0.00000    1.000
    Cu4      Cu       0.50000    0.50000    0.50000    1.000
    C25      C        0.80350    0.25000    0.80380    1.000
    C26      C        0.85930    0.25000    0.85840    1.000
    C27      C        0.30350    0.75000    0.30380    1.000
    C28      C        0.35930    0.75000    0.35840    1.000
    C29      C        0.19650    0.25000    0.80380    1.000
    C30      C        0.14070    0.25000    0.85840    1.000
    C31      C        0.69650    0.75000    0.30380    1.000
    C32      C        0.64070    0.75000    0.35840    1.000
    C33      C        0.19650    0.75000    0.19620    1.000
    C34      C        0.14070    0.75000    0.14160    1.000
    C35      C        0.69650    0.25000    0.69620    1.000
    C36      C        0.64070    0.25000    0.64160    1.000
    C37      C        0.80350    0.75000    0.19620    1.000
    C38      C        0.85930    0.75000    0.14160    1.000
    C39      C        0.30350    0.25000    0.69620    1.000
    C40      C        0.35930    0.25000    0.64160    1.000
