# CIF file generated by openbabel 3.1.0, see https://openbabel.org
data_I
_chemical_name_common 'image0'
_cell_length_a 16.2158
_cell_length_b 14.9024
_cell_length_c 7.9068
_cell_angle_alpha 90
_cell_angle_beta 91.826
_cell_angle_gamma 90
_space_group_name_H-M_alt 'P 1'
_space_group_name_Hall 'P 1'
loop_
    _symmetry_equiv_pos_as_xyz
    x,y,z
loop_
    _atom_site_label
    _atom_site_type_symbol
    _atom_site_fract_x
    _atom_site_fract_y
    _atom_site_fract_z
    _atom_site_occupancy
    Ho1      Ho       0.45498    0.38381    0.04996    1.000
    Ag1      Ag       0.02677    0.74033    0.39967    1.000
    C1       C        0.36770    0.58080    0.13780    1.000
    C2       C        0.28920    0.62360    0.19590    1.000
    C3       C        0.21910    0.57200    0.20360    1.000
    H1       H        0.21990    0.51170    0.17320    1.000
    C4       C        0.14740    0.61140    0.25730    1.000
    H2       H        0.10020    0.57620    0.26200    1.000
    C5       C        0.21110    0.74700    0.29360    1.000
    H3       H        0.20860    0.80720    0.32390    1.000
    C6       C        0.28520    0.71280    0.24120    1.000
    H4       H        0.33150    0.74930    0.23660    1.000
    C7       C        0.13360    0.17190    0.95950    1.000
    H5       H        0.10660    0.11760    0.97490    1.000
    C8       C        0.21200    0.17070    0.89570    1.000
    H6       H        0.23720    0.11660    0.86980    1.000
    C9       C        0.25210    0.25100    0.87110    1.000
    C10      C        0.33750    0.25100    0.80170    1.000
    C11      C        0.21250    0.32950    0.91280    1.000
    H7       H        0.23820    0.38460    0.89830    1.000
    C12      C        0.13430    0.32540    0.97620    1.000
    H8       H        0.10800    0.37870    0.00340    1.000
    N1       N        0.14270    0.69690    0.30260    1.000
    N2       N        0.09500    0.24800    0.00010    1.000
    O1       O        0.42420    0.63320    0.09280    1.000
    O2       O        0.36990    0.49710    0.13840    1.000
    O3       O        0.35906    0.18441    0.71900    1.000
    O4       O        0.38257    0.31880    0.83090    1.000
    O5       O        0.54736    0.50350    0.15830    1.000
    O6       O        0.53440    0.38470    0.31290    1.000
    C13      C        0.56910    0.45890    0.28760    1.000
    C14      C        0.64500    0.48860    0.38800    1.000
    H9       H        0.65450    0.44860    0.48210    1.000
    H10      H        0.63680    0.54840    0.42970    1.000
    H11      H        0.69180    0.48770    0.31710    1.000
    C15      C        0.62560    0.49910    0.42300    1.000
    H12      H        0.59560    0.50740    0.52470    1.000
    H13      H        0.64570    0.55600    0.38520    1.000
    H14      H        0.67130    0.45940    0.44550    1.000
    Ho2      Ho       0.54502    0.88381    0.45004    1.000
    Ag2      Ag       0.97323    0.24033    0.10033    1.000
    C16      C        0.63230    0.08080    0.36220    1.000
    C17      C        0.71080    0.12360    0.30410    1.000
    C18      C        0.78090    0.07200    0.29640    1.000
    H15      H        0.78010    0.01170    0.32680    1.000
    C19      C        0.85260    0.11140    0.24270    1.000
    H16      H        0.89980    0.07620    0.23800    1.000
    C20      C        0.78890    0.24700    0.20640    1.000
    H17      H        0.79140    0.30720    0.17610    1.000
    C21      C        0.71480    0.21280    0.25880    1.000
    H18      H        0.66850    0.24930    0.26340    1.000
    C22      C        0.86640    0.67190    0.54050    1.000
    H19      H        0.89340    0.61760    0.52510    1.000
    C23      C        0.78800    0.67070    0.60430    1.000
    H20      H        0.76280    0.61660    0.63020    1.000
    C24      C        0.74790    0.75100    0.62890    1.000
    C25      C        0.66250    0.75100    0.69830    1.000
    C26      C        0.78750    0.82950    0.58720    1.000
    H21      H        0.76180    0.88460    0.60170    1.000
    C27      C        0.86570    0.82540    0.52380    1.000
    H22      H        0.89200    0.87870    0.49660    1.000
    N3       N        0.85730    0.19690    0.19740    1.000
    N4       N        0.90500    0.74800    0.49990    1.000
    O7       O        0.57580    0.13320    0.40720    1.000
    O8       O        0.63010    0.99710    0.36160    1.000
    O9       O        0.64094    0.68441    0.78100    1.000
    O10      O        0.61743    0.81880    0.66910    1.000
    O11      O        0.45264    0.00350    0.34170    1.000
    O12      O        0.46560    0.88470    0.18710    1.000
    C28      C        0.43090    0.95890    0.21240    1.000
    C29      C        0.35500    0.98860    0.11200    1.000
    H23      H        0.34550    0.94860    0.01790    1.000
    H24      H        0.36320    0.04840    0.07030    1.000
    H25      H        0.30820    0.98770    0.18290    1.000
    C30      C        0.37440    0.99910    0.07700    1.000
    H26      H        0.40440    0.00740    0.97530    1.000
    H27      H        0.35430    0.05600    0.11480    1.000
    H28      H        0.32870    0.95940    0.05450    1.000
    Ho3      Ho       0.54502    0.61619    0.95004    1.000
    Ag3      Ag       0.97323    0.25967    0.60033    1.000
    C31      C        0.63230    0.41920    0.86220    1.000
    C32      C        0.71080    0.37640    0.80410    1.000
    C33      C        0.78090    0.42800    0.79640    1.000
    H29      H        0.78010    0.48830    0.82680    1.000
    C34      C        0.85260    0.38860    0.74270    1.000
    H30      H        0.89980    0.42380    0.73800    1.000
    C35      C        0.78890    0.25300    0.70640    1.000
    H31      H        0.79140    0.19280    0.67610    1.000
    C36      C        0.71480    0.28720    0.75880    1.000
    H32      H        0.66850    0.25070    0.76340    1.000
    C37      C        0.86640    0.82810    0.04050    1.000
    H33      H        0.89340    0.88240    0.02510    1.000
    C38      C        0.78800    0.82930    0.10430    1.000
    H34      H        0.76280    0.88340    0.13020    1.000
    C39      C        0.74790    0.74900    0.12890    1.000
    C40      C        0.66250    0.74900    0.19830    1.000
    C41      C        0.78750    0.67050    0.08720    1.000
    H35      H        0.76180    0.61540    0.10170    1.000
    C42      C        0.86570    0.67460    0.02380    1.000
    H36      H        0.89200    0.62130    0.99660    1.000
    N5       N        0.85730    0.30310    0.69740    1.000
    N6       N        0.90500    0.75200    0.99990    1.000
    O13      O        0.57580    0.36680    0.90720    1.000
    O14      O        0.63010    0.50290    0.86160    1.000
    O15      O        0.64094    0.81559    0.28100    1.000
    O16      O        0.61743    0.68120    0.16910    1.000
    O17      O        0.45264    0.49650    0.84170    1.000
    O18      O        0.46560    0.61530    0.68710    1.000
    C43      C        0.43090    0.54110    0.71240    1.000
    C44      C        0.35500    0.51140    0.61200    1.000
    H37      H        0.34550    0.55140    0.51790    1.000
    H38      H        0.36320    0.45160    0.57030    1.000
    H39      H        0.30820    0.51230    0.68290    1.000
    C45      C        0.37440    0.50090    0.57700    1.000
    H40      H        0.40440    0.49260    0.47530    1.000
    H41      H        0.35430    0.44400    0.61480    1.000
    H42      H        0.32870    0.54060    0.55450    1.000
    Ho4      Ho       0.45498    0.11619    0.54996    1.000
    Ag4      Ag       0.02677    0.75967    0.89967    1.000
    C46      C        0.36770    0.91920    0.63780    1.000
    C47      C        0.28920    0.87640    0.69590    1.000
    C48      C        0.21910    0.92800    0.70360    1.000
    H43      H        0.21990    0.98830    0.67320    1.000
    C49      C        0.14740    0.88860    0.75730    1.000
    H44      H        0.10020    0.92380    0.76200    1.000
    C50      C        0.21110    0.75300    0.79360    1.000
    H45      H        0.20860    0.69280    0.82390    1.000
    C51      C        0.28520    0.78720    0.74120    1.000
    H46      H        0.33150    0.75070    0.73660    1.000
    C52      C        0.13360    0.32810    0.45950    1.000
    H47      H        0.10660    0.38240    0.47490    1.000
    C53      C        0.21200    0.32930    0.39570    1.000
    H48      H        0.23720    0.38340    0.36980    1.000
    C54      C        0.25210    0.24900    0.37110    1.000
    C55      C        0.33750    0.24900    0.30170    1.000
    C56      C        0.21250    0.17050    0.41280    1.000
    H49      H        0.23820    0.11540    0.39830    1.000
    C57      C        0.13430    0.17460    0.47620    1.000
    H50      H        0.10800    0.12130    0.50340    1.000
    N7       N        0.14270    0.80310    0.80260    1.000
    N8       N        0.09500    0.25200    0.50010    1.000
    O19      O        0.42420    0.86680    0.59280    1.000
    O20      O        0.36990    0.00290    0.63840    1.000
    O21      O        0.35906    0.31559    0.21900    1.000
    O22      O        0.38257    0.18120    0.33090    1.000
    O23      O        0.54736    0.99650    0.65830    1.000
    O24      O        0.53440    0.11530    0.81290    1.000
    C58      C        0.56910    0.04110    0.78760    1.000
    C59      C        0.64500    0.01140    0.88800    1.000
    H51      H        0.65450    0.05140    0.98210    1.000
    H52      H        0.63680    0.95160    0.92970    1.000
    H53      H        0.69180    0.01230    0.81710    1.000
    C60      C        0.62560    0.00090    0.92300    1.000
    H54      H        0.59560    0.99260    0.02470    1.000
    H55      H        0.64570    0.94400    0.88520    1.000
    H56      H        0.67130    0.04060    0.94550    1.000
