# CIF file generated by openbabel 3.1.0, see https://openbabel.org
data_I
_chemical_name_common 'image0'
_cell_length_a 8.926
_cell_length_b 12.767
_cell_length_c 9.196
_cell_angle_alpha 90
_cell_angle_beta 90
_cell_angle_gamma 90
_space_group_name_H-M_alt 'P 1'
_space_group_name_Hall 'P 1'
loop_
    _symmetry_equiv_pos_as_xyz
    x,y,z
loop_
    _atom_site_label
    _atom_site_type_symbol
    _atom_site_fract_x
    _atom_site_fract_y
    _atom_site_fract_z
    _atom_site_occupancy
    O1       O        0.48275    0.66330    0.41954    1.000
    O2       O        0.29850    0.45825    0.37482    1.000
    O3       O        0.13485    0.45849    0.19299    1.000
    C1       C        0.25485    0.48251    0.25112    1.000
    H1       H        0.31980    0.52340    0.19600    1.000
    O4       O        0.01725    0.33670    0.91954    1.000
    O5       O        0.20150    0.54175    0.87482    1.000
    O6       O        0.36515    0.54151    0.69299    1.000
    C2       C        0.24515    0.51749    0.75112    1.000
    H2       H        0.18020    0.47660    0.69600    1.000
    O7       O        0.51725    0.16330    0.58046    1.000
    O8       O        0.70150    0.95825    0.62518    1.000
    O9       O        0.86515    0.95849    0.80701    1.000
    C3       C        0.74515    0.98251    0.74888    1.000
    H3       H        0.68020    0.02340    0.80400    1.000
    O10      O        0.98275    0.83670    0.08046    1.000
    O11      O        0.79850    0.04175    0.12518    1.000
    O12      O        0.63485    0.04151    0.30701    1.000
    C4       C        0.75485    0.01749    0.24888    1.000
    H4       H        0.81980    0.97660    0.30400    1.000
    O13      O        0.51725    0.33670    0.58046    1.000
    O14      O        0.70150    0.54175    0.62518    1.000
    O15      O        0.86515    0.54151    0.80701    1.000
    C5       C        0.74515    0.51749    0.74888    1.000
    H5       H        0.68020    0.47660    0.80400    1.000
    O16      O        0.98275    0.66330    0.08046    1.000
    O17      O        0.79850    0.45825    0.12518    1.000
    O18      O        0.63485    0.45849    0.30701    1.000
    C6       C        0.75485    0.48251    0.24888    1.000
    H6       H        0.81980    0.52340    0.30400    1.000
    O19      O        0.48275    0.83670    0.41954    1.000
    O20      O        0.29850    0.04175    0.37482    1.000
    O21      O        0.13485    0.04151    0.19299    1.000
    C7       C        0.25485    0.01749    0.25112    1.000
    H7       H        0.31980    0.97660    0.19600    1.000
    O22      O        0.01725    0.16330    0.91954    1.000
    O23      O        0.20150    0.95825    0.87482    1.000
    O24      O        0.36515    0.95849    0.69299    1.000
    C8       C        0.24515    0.98251    0.75112    1.000
    H8       H        0.18020    0.02340    0.69600    1.000
    Mn1      Mn       0.50000    0.50000    0.50000    1.000
    Mn2      Mn       0.00000    0.50000    0.00000    1.000
    Mn3      Mn       0.50000    0.00000    0.50000    1.000
    Mn4      Mn       0.00000    0.00000    0.00000    1.000
    C9       C        0.48830    0.75000    0.47540    1.000
    H9       H        0.49830    0.75000    0.57610    1.000
    C10      C        0.01170    0.25000    0.97540    1.000
    H10      H        0.00170    0.25000    0.07610    1.000
    C11      C        0.51170    0.25000    0.52460    1.000
    H11      H        0.50170    0.25000    0.42390    1.000
    C12      C        0.98830    0.75000    0.02460    1.000
    H12      H        0.99830    0.75000    0.92390    1.000
