# CIF file generated by openbabel 3.1.0, see https://openbabel.org
data_I
_chemical_name_common 'image0'
_cell_length_a 28.7444
_cell_length_b 9.2672
_cell_length_c 9.3295
_cell_angle_alpha 90
_cell_angle_beta 116.097
_cell_angle_gamma 90
_space_group_name_H-M_alt 'P 1'
_space_group_name_Hall 'P 1'
loop_
    _symmetry_equiv_pos_as_xyz
    x,y,z
loop_
    _atom_site_label
    _atom_site_type_symbol
    _atom_site_fract_x
    _atom_site_fract_y
    _atom_site_fract_z
    _atom_site_occupancy
    Cu1      Cu       0.18782    0.83070    0.31370    1.000
    O1       O        0.12820    0.07300    0.34490    1.000
    O2       O        0.13900    0.17990    0.57420    1.000
    N1       N        0.21960    0.00880    0.73980    1.000
    N2       N        0.25590    0.90530    0.79280    1.000
    N3       N        0.25050    0.82580    0.66850    1.000
    N4       N        0.21140    0.87660    0.53770    1.000
    N5       N        0.14300    0.66080    0.33080    1.000
    C1       C        0.14930    0.08860    0.49060    1.000
    C2       C        0.19300    0.98870    0.58400    1.000
    C3       C        0.11080    0.71960    0.38470    1.000
    C4       C        0.07300    0.64390    0.40800    1.000
    C5       C        0.06843    0.49730    0.37250    1.000
    C6       C        0.10100    0.43300    0.31680    1.000
    C7       C        0.13760    0.51860    0.29760    1.000
    C8       C        0.02817    0.40780    0.39506    1.000
    H1       H        0.11428    0.82093    0.40872    1.000
    H2       H        0.05095    0.69064    0.44685    1.000
    H3       H        0.09831    0.33191    0.29205    1.000
    H4       H        0.16012    0.47428    0.25894    1.000
    H5       H        0.04484    0.34810    0.48794    1.000
    H6       H        0.00382    0.47056    0.40866    1.000
    H7       H        0.02454    0.25390    0.23380    1.000
    Cu2      Cu       0.68782    0.33070    0.31370    1.000
    O3       O        0.62820    0.57300    0.34490    1.000
    O4       O        0.63900    0.67990    0.57420    1.000
    N6       N        0.71960    0.50880    0.73980    1.000
    N7       N        0.75590    0.40530    0.79280    1.000
    N8       N        0.75050    0.32580    0.66850    1.000
    N9       N        0.71140    0.37660    0.53770    1.000
    N10      N        0.64300    0.16080    0.33080    1.000
    C9       C        0.64930    0.58860    0.49060    1.000
    C10      C        0.69300    0.48870    0.58400    1.000
    C11      C        0.61080    0.21960    0.38470    1.000
    C12      C        0.57300    0.14390    0.40800    1.000
    C13      C        0.56843    0.99730    0.37250    1.000
    C14      C        0.60100    0.93300    0.31680    1.000
    C15      C        0.63760    0.01860    0.29760    1.000
    C16      C        0.52817    0.90780    0.39506    1.000
    H8       H        0.61428    0.32093    0.40872    1.000
    H9       H        0.55095    0.19064    0.44685    1.000
    H10      H        0.59831    0.83191    0.29205    1.000
    H11      H        0.66012    0.97428    0.25894    1.000
    H12      H        0.54484    0.84810    0.48794    1.000
    H13      H        0.50382    0.97056    0.40866    1.000
    H14      H        0.52454    0.75390    0.23380    1.000
    Cu3      Cu       0.81218    0.83070    0.18630    1.000
    O5       O        0.87180    0.07300    0.15510    1.000
    O6       O        0.86100    0.17990    0.92580    1.000
    N11      N        0.78040    0.00880    0.76020    1.000
    N12      N        0.74410    0.90530    0.70720    1.000
    N13      N        0.74950    0.82580    0.83150    1.000
    N14      N        0.78860    0.87660    0.96230    1.000
    N15      N        0.85700    0.66080    0.16920    1.000
    C17      C        0.85070    0.08860    0.00940    1.000
    C18      C        0.80700    0.98870    0.91600    1.000
    C19      C        0.88920    0.71960    0.11530    1.000
    C20      C        0.92700    0.64390    0.09200    1.000
    C21      C        0.93157    0.49730    0.12750    1.000
    C22      C        0.89900    0.43300    0.18320    1.000
    C23      C        0.86240    0.51860    0.20240    1.000
    C24      C        0.97183    0.40780    0.10494    1.000
    H15      H        0.88572    0.82093    0.09128    1.000
    H16      H        0.94905    0.69064    0.05315    1.000
    H17      H        0.90169    0.33191    0.20795    1.000
    H18      H        0.83988    0.47428    0.24106    1.000
    H19      H        0.95516    0.34810    0.01206    1.000
    H20      H        0.99618    0.47056    0.09134    1.000
    H21      H        0.97546    0.25390    0.26620    1.000
    Cu4      Cu       0.31218    0.33070    0.18630    1.000
    O7       O        0.37180    0.57300    0.15510    1.000
    O8       O        0.36100    0.67990    0.92580    1.000
    N16      N        0.28040    0.50880    0.76020    1.000
    N17      N        0.24410    0.40530    0.70720    1.000
    N18      N        0.24950    0.32580    0.83150    1.000
    N19      N        0.28860    0.37660    0.96230    1.000
    N20      N        0.35700    0.16080    0.16920    1.000
    C25      C        0.35070    0.58860    0.00940    1.000
    C26      C        0.30700    0.48870    0.91600    1.000
    C27      C        0.38920    0.21960    0.11530    1.000
    C28      C        0.42700    0.14390    0.09200    1.000
    C29      C        0.43157    0.99730    0.12750    1.000
    C30      C        0.39900    0.93300    0.18320    1.000
    C31      C        0.36240    0.01860    0.20240    1.000
    C32      C        0.47183    0.90780    0.10494    1.000
    H22      H        0.38572    0.32093    0.09128    1.000
    H23      H        0.44905    0.19064    0.05315    1.000
    H24      H        0.40169    0.83191    0.20795    1.000
    H25      H        0.33988    0.97428    0.24106    1.000
    H26      H        0.45516    0.84810    0.01206    1.000
    H27      H        0.49618    0.97056    0.09134    1.000
    H28      H        0.47546    0.75390    0.26620    1.000
    Cu5      Cu       0.81218    0.16930    0.68630    1.000
    O9       O        0.87180    0.92700    0.65510    1.000
    O10      O        0.86100    0.82010    0.42580    1.000
    N21      N        0.78040    0.99120    0.26020    1.000
    N22      N        0.74410    0.09470    0.20720    1.000
    N23      N        0.74950    0.17420    0.33150    1.000
    N24      N        0.78860    0.12340    0.46230    1.000
    N25      N        0.85700    0.33920    0.66920    1.000
    C33      C        0.85070    0.91140    0.50940    1.000
    C34      C        0.80700    0.01130    0.41600    1.000
    C35      C        0.88920    0.28040    0.61530    1.000
    C36      C        0.92700    0.35610    0.59200    1.000
    C37      C        0.93157    0.50270    0.62750    1.000
    C38      C        0.89900    0.56700    0.68320    1.000
    C39      C        0.86240    0.48140    0.70240    1.000
    C40      C        0.97183    0.59220    0.60494    1.000
    H29      H        0.88572    0.17907    0.59128    1.000
    H30      H        0.94905    0.30936    0.55315    1.000
    H31      H        0.90169    0.66809    0.70795    1.000
    H32      H        0.83988    0.52572    0.74106    1.000
    H33      H        0.95516    0.65190    0.51206    1.000
    H34      H        0.99618    0.52944    0.59134    1.000
    H35      H        0.97546    0.74610    0.76620    1.000
    Cu6      Cu       0.31218    0.66930    0.68630    1.000
    O11      O        0.37180    0.42700    0.65510    1.000
    O12      O        0.36100    0.32010    0.42580    1.000
    N26      N        0.28040    0.49120    0.26020    1.000
    N27      N        0.24410    0.59470    0.20720    1.000
    N28      N        0.24950    0.67420    0.33150    1.000
    N29      N        0.28860    0.62340    0.46230    1.000
    N30      N        0.35700    0.83920    0.66920    1.000
    C41      C        0.35070    0.41140    0.50940    1.000
    C42      C        0.30700    0.51130    0.41600    1.000
    C43      C        0.38920    0.78040    0.61530    1.000
    C44      C        0.42700    0.85610    0.59200    1.000
    C45      C        0.43157    0.00270    0.62750    1.000
    C46      C        0.39900    0.06700    0.68320    1.000
    C47      C        0.36240    0.98140    0.70240    1.000
    C48      C        0.47183    0.09220    0.60494    1.000
    H36      H        0.38572    0.67907    0.59128    1.000
    H37      H        0.44905    0.80936    0.55315    1.000
    H38      H        0.40169    0.16809    0.70795    1.000
    H39      H        0.33988    0.02572    0.74106    1.000
    H40      H        0.45516    0.15190    0.51206    1.000
    H41      H        0.49618    0.02944    0.59134    1.000
    H42      H        0.47546    0.24610    0.76620    1.000
    Cu7      Cu       0.18782    0.16930    0.81370    1.000
    O13      O        0.12820    0.92700    0.84490    1.000
    O14      O        0.13900    0.82010    0.07420    1.000
    N31      N        0.21960    0.99120    0.23980    1.000
    N32      N        0.25590    0.09470    0.29280    1.000
    N33      N        0.25050    0.17420    0.16850    1.000
    N34      N        0.21140    0.12340    0.03770    1.000
    N35      N        0.14300    0.33920    0.83080    1.000
    C49      C        0.14930    0.91140    0.99060    1.000
    C50      C        0.19300    0.01130    0.08400    1.000
    C51      C        0.11080    0.28040    0.88470    1.000
    C52      C        0.07300    0.35610    0.90800    1.000
    C53      C        0.06843    0.50270    0.87250    1.000
    C54      C        0.10100    0.56700    0.81680    1.000
    C55      C        0.13760    0.48140    0.79760    1.000
    C56      C        0.02817    0.59220    0.89506    1.000
    H43      H        0.11428    0.17907    0.90872    1.000
    H44      H        0.05095    0.30936    0.94685    1.000
    H45      H        0.09831    0.66809    0.79205    1.000
    H46      H        0.16012    0.52572    0.75894    1.000
    H47      H        0.04484    0.65190    0.98794    1.000
    H48      H        0.00382    0.52944    0.90866    1.000
    H49      H        0.02454    0.74610    0.73380    1.000
    Cu8      Cu       0.68782    0.66930    0.81370    1.000
    O15      O        0.62820    0.42700    0.84490    1.000
    O16      O        0.63900    0.32010    0.07420    1.000
    N36      N        0.71960    0.49120    0.23980    1.000
    N37      N        0.75590    0.59470    0.29280    1.000
    N38      N        0.75050    0.67420    0.16850    1.000
    N39      N        0.71140    0.62340    0.03770    1.000
    N40      N        0.64300    0.83920    0.83080    1.000
    C57      C        0.64930    0.41140    0.99060    1.000
    C58      C        0.69300    0.51130    0.08400    1.000
    C59      C        0.61080    0.78040    0.88470    1.000
    C60      C        0.57300    0.85610    0.90800    1.000
    C61      C        0.56843    0.00270    0.87250    1.000
    C62      C        0.60100    0.06700    0.81680    1.000
    C63      C        0.63760    0.98140    0.79760    1.000
    C64      C        0.52817    0.09220    0.89506    1.000
    H50      H        0.61428    0.67907    0.90872    1.000
    H51      H        0.55095    0.80936    0.94685    1.000
    H52      H        0.59831    0.16809    0.79205    1.000
    H53      H        0.66012    0.02572    0.75894    1.000
    H54      H        0.54484    0.15190    0.98794    1.000
    H55      H        0.50382    0.02944    0.90866    1.000
    H56      H        0.52454    0.24610    0.73380    1.000
    C65      C        0.00000    0.31370    0.25000    1.000
    C66      C        0.50000    0.81370    0.25000    1.000
    C67      C        0.00000    0.68630    0.75000    1.000
    C68      C        0.50000    0.18630    0.75000    1.000
