# CIF file generated by openbabel 3.1.0, see https://openbabel.org
data_I
_chemical_name_common 'PARMIG_clean'
_cell_length_a 8.3862
_cell_length_b 15.0363
_cell_length_c 15.0363
_cell_angle_alpha 90
_cell_angle_beta 90
_cell_angle_gamma 90
_space_group_name_H-M_alt 'P 1'
_space_group_name_Hall 'P 1'
loop_
    _symmetry_equiv_pos_as_xyz
    x,y,z
loop_
    _atom_site_label
    _atom_site_type_symbol
    _atom_site_fract_x
    _atom_site_fract_y
    _atom_site_fract_z
    _atom_site_occupancy
    Ni1      Ni       0.00000    0.25580    0.25580    1.000
    Ni2      Ni       0.50000    0.74420    0.74420    1.000
    Ni3      Ni       0.25000    0.24420    0.75580    1.000
    Ni4      Ni       0.75000    0.75580    0.24420    1.000
    H1       H        0.17540    0.27420    0.07710    1.000
    H2       H        0.06850    0.27380    0.93150    1.000
    H3       H        0.75700    0.25800    0.86100    1.000
    H4       H        0.43700    0.22100    0.05100    1.000
    H5       H        0.63400    0.23100    0.16300    1.000
    H6       H        0.67540    0.72580    0.92290    1.000
    H7       H        0.56850    0.72620    0.06850    1.000
    H8       H        0.25700    0.74200    0.13900    1.000
    H9       H        0.93700    0.77900    0.94900    1.000
    H10      H        0.13400    0.76900    0.83700    1.000
    H11      H        0.42540    0.42290    0.77420    1.000
    H12      H        0.31850    0.56850    0.77380    1.000
    H13      H        0.00700    0.63900    0.75800    1.000
    H14      H        0.68700    0.44900    0.72100    1.000
    H15      H        0.88400    0.33700    0.73100    1.000
    H16      H        0.92540    0.57710    0.22580    1.000
    H17      H        0.81850    0.43150    0.22620    1.000
    H18      H        0.50700    0.36100    0.24200    1.000
    H19      H        0.18700    0.55100    0.27900    1.000
    H20      H        0.38400    0.66300    0.26900    1.000
    H21      H        0.07460    0.22580    0.57710    1.000
    H22      H        0.18150    0.22620    0.43150    1.000
    H23      H        0.49300    0.24200    0.36100    1.000
    H24      H        0.81300    0.27900    0.55100    1.000
    H25      H        0.61600    0.26900    0.66300    1.000
    H26      H        0.57460    0.77420    0.42290    1.000
    H27      H        0.68150    0.77380    0.56850    1.000
    H28      H        0.99300    0.75800    0.63900    1.000
    H29      H        0.31300    0.72100    0.44900    1.000
    H30      H        0.11600    0.73100    0.33700    1.000
    H31      H        0.82460    0.07710    0.27420    1.000
    H32      H        0.93150    0.93150    0.27380    1.000
    H33      H        0.24300    0.86100    0.25800    1.000
    H34      H        0.56300    0.05100    0.22100    1.000
    H35      H        0.36600    0.16300    0.23100    1.000
    H36      H        0.32460    0.92290    0.72580    1.000
    H37      H        0.43150    0.06850    0.72620    1.000
    H38      H        0.74300    0.13900    0.74200    1.000
    H39      H        0.06300    0.94900    0.77900    1.000
    H40      H        0.86600    0.83700    0.76900    1.000
    C1       C        0.44810    0.24100    0.87770    1.000
    C2       C        0.57900    0.24220    0.94480    1.000
    C3       C        0.54250    0.23300    0.03600    1.000
    C4       C        0.65780    0.23730    0.10110    1.000
    C5       C        0.81570    0.25130    0.07420    1.000
    C6       C        0.84980    0.25680    0.98350    1.000
    C7       C        0.73390    0.25300    0.91820    1.000
    C8       C        0.06790    0.26860    0.06290    1.000
    C9       C        0.94810    0.75900    0.12230    1.000
    C10      C        0.07900    0.75780    0.05520    1.000
    C11      C        0.04250    0.76700    0.96400    1.000
    C12      C        0.15780    0.76270    0.89890    1.000
    C13      C        0.31570    0.74870    0.92580    1.000
    C14      C        0.34980    0.74320    0.01650    1.000
    C15      C        0.23390    0.74700    0.08180    1.000
    C16      C        0.56790    0.73140    0.93710    1.000
    C17      C        0.69810    0.62230    0.74100    1.000
    C18      C        0.82900    0.55520    0.74220    1.000
    C19      C        0.79250    0.46400    0.73300    1.000
    C20      C        0.90780    0.39890    0.73730    1.000
    C21      C        0.06570    0.42580    0.75130    1.000
    C22      C        0.09980    0.51650    0.75680    1.000
    C23      C        0.98390    0.58180    0.75300    1.000
    C24      C        0.31790    0.43710    0.76860    1.000
    C25      C        0.19810    0.37770    0.25900    1.000
    C26      C        0.32900    0.44480    0.25780    1.000
    C27      C        0.29250    0.53600    0.26700    1.000
    C28      C        0.40780    0.60110    0.26270    1.000
    C29      C        0.56570    0.57420    0.24870    1.000
    C30      C        0.59980    0.48350    0.24320    1.000
    C31      C        0.48390    0.41820    0.24700    1.000
    C32      C        0.81790    0.56290    0.23140    1.000
    C33      C        0.80190    0.25900    0.37770    1.000
    C34      C        0.67100    0.25780    0.44480    1.000
    C35      C        0.70750    0.26700    0.53600    1.000
    C36      C        0.59220    0.26270    0.60110    1.000
    C37      C        0.43430    0.24870    0.57420    1.000
    C38      C        0.40020    0.24320    0.48350    1.000
    C39      C        0.51610    0.24700    0.41820    1.000
    C40      C        0.18210    0.23140    0.56290    1.000
    C41      C        0.30190    0.74100    0.62230    1.000
    C42      C        0.17100    0.74220    0.55520    1.000
    C43      C        0.20750    0.73300    0.46400    1.000
    C44      C        0.09220    0.73730    0.39890    1.000
    C45      C        0.93430    0.75130    0.42580    1.000
    C46      C        0.90020    0.75680    0.51650    1.000
    C47      C        0.01610    0.75300    0.58180    1.000
    C48      C        0.68210    0.76860    0.43710    1.000
    C49      C        0.55190    0.87770    0.24100    1.000
    C50      C        0.42100    0.94480    0.24220    1.000
    C51      C        0.45750    0.03600    0.23300    1.000
    C52      C        0.34220    0.10110    0.23730    1.000
    C53      C        0.18430    0.07420    0.25130    1.000
    C54      C        0.15020    0.98350    0.25680    1.000
    C55      C        0.26610    0.91820    0.25300    1.000
    C56      C        0.93210    0.06290    0.26860    1.000
    C57      C        0.05190    0.12230    0.75900    1.000
    C58      C        0.92100    0.05520    0.75780    1.000
    C59      C        0.95750    0.96400    0.76700    1.000
    C60      C        0.84220    0.89890    0.76270    1.000
    C61      C        0.68430    0.92580    0.74870    1.000
    C62      C        0.65020    0.01650    0.74320    1.000
    C63      C        0.76610    0.08180    0.74700    1.000
    C64      C        0.43210    0.93710    0.73140    1.000
    N1       N        0.95540    0.26020    0.12252    1.000
    N2       N        0.01260    0.26810    0.97910    1.000
    N3       N        0.45540    0.73980    0.87748    1.000
    N4       N        0.51260    0.73190    0.02090    1.000
    N5       N        0.20540    0.37748    0.76020    1.000
    N6       N        0.26260    0.52090    0.76810    1.000
    N7       N        0.70540    0.62252    0.23980    1.000
    N8       N        0.76260    0.47910    0.23190    1.000
    N9       N        0.29460    0.23980    0.62252    1.000
    N10      N        0.23740    0.23190    0.47910    1.000
    N11      N        0.79460    0.76020    0.37748    1.000
    N12      N        0.73740    0.76810    0.52090    1.000
    N13      N        0.04460    0.12252    0.26020    1.000
    N14      N        0.98740    0.97910    0.26810    1.000
    N15      N        0.54460    0.87748    0.73980    1.000
    N16      N        0.48740    0.02090    0.73190    1.000
    O1       O        0.30480    0.23930    0.90034    1.000
    O2       O        0.48470    0.24495    0.79588    1.000
    O3       O        0.80480    0.76070    0.09966    1.000
    O4       O        0.98470    0.75505    0.20412    1.000
    O5       O        0.55480    0.59966    0.73930    1.000
    O6       O        0.73470    0.70412    0.74495    1.000
    O7       O        0.05480    0.40034    0.26070    1.000
    O8       O        0.23470    0.29588    0.25505    1.000
    O9       O        0.94520    0.26070    0.40034    1.000
    O10      O        0.76530    0.25505    0.29588    1.000
    O11      O        0.44520    0.73930    0.59966    1.000
    O12      O        0.26530    0.74495    0.70412    1.000
    O13      O        0.69520    0.90034    0.23930    1.000
    O14      O        0.51530    0.79588    0.24495    1.000
    O15      O        0.19520    0.09966    0.76070    1.000
    O16      O        0.01530    0.20412    0.75505    1.000
