# CIF file generated by openbabel 3.1.0, see https://openbabel.org
data_I
_chemical_name_common 'image0'
_cell_length_a 20.0305
_cell_length_b 6.6713
_cell_length_c 4.3996
_cell_angle_alpha 90
_cell_angle_beta 91.379
_cell_angle_gamma 90
_space_group_name_H-M_alt 'P 1'
_space_group_name_Hall 'P 1'
loop_
    _symmetry_equiv_pos_as_xyz
    x,y,z
loop_
    _atom_site_label
    _atom_site_type_symbol
    _atom_site_fract_x
    _atom_site_fract_y
    _atom_site_fract_z
    _atom_site_occupancy
    O1       O        0.18150    0.30400    0.30080    1.000
    O2       O        0.68150    0.80400    0.30080    1.000
    O3       O        0.81850    0.30400    0.69920    1.000
    O4       O        0.31850    0.80400    0.69920    1.000
    O5       O        0.81850    0.69600    0.69920    1.000
    O6       O        0.31850    0.19600    0.69920    1.000
    O7       O        0.18150    0.69600    0.30080    1.000
    O8       O        0.68150    0.19600    0.30080    1.000
    Cu1      Cu       0.25000    0.25000    0.00000    1.000
    Cu2      Cu       0.75000    0.25000    0.00000    1.000
    Cu3      Cu       0.75000    0.75000    0.00000    1.000
    Cu4      Cu       0.25000    0.75000    0.00000    1.000
    P1       P        0.17500    0.50000    0.47880    1.000
    C1       C        0.09610    0.50000    0.66700    1.000
    C2       C        0.03690    0.50000    0.43800    1.000
    P2       P        0.67500    0.00000    0.47880    1.000
    C3       C        0.59610    0.00000    0.66700    1.000
    C4       C        0.53690    0.00000    0.43800    1.000
    P3       P        0.82500    0.50000    0.52120    1.000
    C5       C        0.90390    0.50000    0.33300    1.000
    C6       C        0.96310    0.50000    0.56200    1.000
    P4       P        0.32500    0.00000    0.52120    1.000
    C7       C        0.40390    0.00000    0.33300    1.000
    C8       C        0.46310    0.00000    0.56200    1.000
    O9       O        0.27230    0.00000    0.25300    1.000
    O10      O        0.77230    0.50000    0.25300    1.000
    O11      O        0.72770    0.00000    0.74700    1.000
    O12      O        0.22770    0.50000    0.74700    1.000
