# CIF file generated by openbabel 3.1.0, see https://openbabel.org
data_I
_chemical_name_common 'image0'
_cell_length_a 14.7141
_cell_length_b 15.3016
_cell_length_c 15.8557
_cell_angle_alpha 67.095
_cell_angle_beta 66.061
_cell_angle_gamma 70.802
_space_group_name_H-M_alt 'P 1'
_space_group_name_Hall 'P 1'
loop_
    _symmetry_equiv_pos_as_xyz
    x,y,z
loop_
    _atom_site_label
    _atom_site_type_symbol
    _atom_site_fract_x
    _atom_site_fract_y
    _atom_site_fract_z
    _atom_site_occupancy
    Co1      Co       0.25454    0.93032    0.98084    1.000
    O1       O        0.18356    0.84139    0.10991    1.000
    O2       O        0.04059    0.86127    0.07908    1.000
    O3       O        0.29624    0.03958    0.83570    1.000
    O4       O        0.15207    0.99056    0.90020    1.000
    O5       O        0.20005    0.04014    0.04226    1.000
    O6       O        0.03050    0.05930    0.08087    1.000
    O7       O        0.63917    0.80173    0.19011    1.000
    H1       H        0.65570    0.85210    0.18370    1.000
    C1       C        0.10502    0.81437    0.12222    1.000
    N1       N        0.68943    0.19397    0.07381    1.000
    N2       N        0.38711    0.90070    0.01609    1.000
    C2       C        0.17850    0.10905    0.74507    1.000
    C3       C        0.20998    0.04507    0.83146    1.000
    C4       C        0.09331    0.11518    0.16191    1.000
    C5       C        0.22343    0.18754    0.68104    1.000
    H2       H        0.27400    0.20260    0.69290    1.000
    C6       C        0.12230    0.22103    0.57942    1.000
    C7       C        0.07681    0.21145    0.28784    1.000
    C8       C        0.16131    0.08188    0.21409    1.000
    H3       H        0.21420    0.02690    0.20610    1.000
    C9       C        0.10848    0.06749    0.08902    1.000
    C10      C        0.10370    0.08745    0.72776    1.000
    H4       H        0.07140    0.03520    0.77230    1.000
    C11      C        0.01454    0.19443    0.17582    1.000
    H5       H        0.96570    0.21530    0.14350    1.000
    C12      C        0.07519    0.26748    0.34670    1.000
    C13      C        0.15204    0.12867    0.27748    1.000
    H6       H        0.19730    0.10410    0.31420    1.000
    C14      C        0.07668    0.14268    0.64519    1.000
    H7       H        0.02660    0.12710    0.63310    1.000
    C15      C        0.56295    0.83692    0.06889    1.000
    C16      C        0.08901    0.71679    0.19220    1.000
    C17      C        0.09202    0.22137    0.43593    1.000
    H8       H        0.09870    0.15310    0.46230    1.000
    C18      C        0.00739    0.24306    0.23711    1.000
    H9       H        0.95480    0.29840    0.24460    1.000
    C19      C        0.56767    0.87930    0.97246    1.000
    H10      H        0.63090    0.88710    0.92310    1.000
    C20      C        0.46790    0.83255    0.13863    1.000
    H11      H        0.46160    0.80820    0.20530    1.000
    C21      C        0.09922    0.27427    0.48714    1.000
    C22      C        0.07208    0.42226    0.35874    1.000
    C23      C        0.38266    0.86409    0.10985    1.000
    H12      H        0.31820    0.85990    0.15810    1.000
    C24      C        0.08895    0.37493    0.44799    1.000
    H13      H        0.09350    0.41140    0.48230    1.000
    C25      C        0.47856    0.90999    0.94962    1.000
    H14      H        0.48240    0.93910    0.88360    1.000
    C26      C        0.06472    0.36789    0.30917    1.000
    H15      H        0.05240    0.39990    0.24900    1.000
    C27      C        0.69879    0.68596    0.10066    1.000
    C28      C        0.01546    0.67592    0.19567    1.000
    H16      H        0.97070    0.71260    0.15890    1.000
    C29      C        0.65885    0.79414    0.09798    1.000
    H17      H        0.71250    0.83150    0.04980    1.000
    C30      C        0.07073    0.52735    0.30980    1.000
    C31      C        0.14970    0.66481    0.25105    1.000
    H18      H        0.19860    0.69330    0.25040    1.000
    C32      C        0.62240    0.36237    0.13150    1.000
    C33      C        0.00754    0.58186    0.25262    1.000
    H19      H        0.95860    0.55380    0.25300    1.000
    C34      C        0.19413    0.24402    0.59939    1.000
    H20      H        0.22340    0.29870    0.55700    1.000
    C35      C        0.64710    0.27874    0.02170    1.000
    H21      H        0.63950    0.28050    0.96430    1.000
    C36      C        0.13940    0.57135    0.31092    1.000
    H22      H        0.17940    0.53740    0.35270    1.000
    C37      C        0.61380    0.36366    0.04700    1.000
    H23      H        0.58550    0.42210    0.00700    1.000
    C38      C        0.66521    0.51309    0.13119    1.000
    C39      C        0.69740    0.19347    0.15580    1.000
    H24      H        0.72680    0.13440    0.19410    1.000
    C40      C        0.66480    0.27510    0.18670    1.000
    H25      H        0.67140    0.27130    0.24530    1.000
    C41      C        0.58380    0.45253    0.16510    1.000
    H26      H        0.56340    0.42900    0.23730    1.000
    O8       O        0.49480    0.51150    0.14200    1.000
    H27      H        0.44520    0.48460    0.17830    1.000
    B1       B        0.63350    0.59989    0.18850    1.000
    H28      H        0.56000    0.61540    0.24590    1.000
    B2       B        0.76020    0.66150    0.99160    1.000
    H29      H        0.77020    0.71840    0.91970    1.000
    B3       B        0.64070    0.63101    0.06560    1.000
    H30      H        0.57130    0.66660    0.04260    1.000
    B4       B        0.74960    0.60795    0.19090    1.000
    H31      H        0.75310    0.62900    0.24950    1.000
    B5       B        0.72670    0.49350    0.21070    1.000
    H32      H        0.71440    0.43740    0.28310    1.000
    B6       B        0.84770    0.52230    0.13700    1.000
    H33      H        0.91650    0.48560    0.16090    1.000
    B7       B        0.82850    0.64590    0.06910    1.000
    H34      H        0.88410    0.69210    0.04800    1.000
    B8       B        0.73830    0.54660    0.01170    1.000
    H35      H        0.73380    0.52560    0.95340    1.000
    B9       B        0.79260    0.46130    0.10120    1.000
    H36      H        0.82430    0.38380    0.10160    1.000
    B10      B        0.85510    0.55610    0.01310    1.000
    H37      H        0.92840    0.54240    0.95490    1.000
    H38      H        0.52800    0.49490    0.13790    1.000
    O9       O        0.54630    0.43130    0.25790    1.000
    H39      H        0.48990    0.41610    0.27620    1.000
    Co2      Co       0.74546    0.06968    0.01916    1.000
    O10      O        0.81644    0.15861    0.89009    1.000
    O11      O        0.95941    0.13873    0.92092    1.000
    O12      O        0.70376    0.96042    0.16430    1.000
    O13      O        0.84793    0.00944    0.09980    1.000
    O14      O        0.79995    0.95986    0.95774    1.000
    O15      O        0.96950    0.94070    0.91913    1.000
    O16      O        0.36083    0.19827    0.80989    1.000
    H40      H        0.34430    0.14790    0.81630    1.000
    C42      C        0.89498    0.18563    0.87778    1.000
    N3       N        0.31057    0.80603    0.92619    1.000
    N4       N        0.61289    0.09930    0.98391    1.000
    C43      C        0.82150    0.89095    0.25493    1.000
    C44      C        0.79002    0.95493    0.16854    1.000
    C45      C        0.90669    0.88482    0.83809    1.000
    C46      C        0.77657    0.81246    0.31896    1.000
    H41      H        0.72600    0.79740    0.30710    1.000
    C47      C        0.87770    0.77897    0.42058    1.000
    C48      C        0.92319    0.78855    0.71216    1.000
    C49      C        0.83869    0.91812    0.78591    1.000
    H42      H        0.78580    0.97310    0.79390    1.000
    C50      C        0.89152    0.93251    0.91098    1.000
    C51      C        0.89630    0.91255    0.27224    1.000
    H43      H        0.92860    0.96480    0.22770    1.000
    C52      C        0.98546    0.80557    0.82418    1.000
    H44      H        0.03430    0.78470    0.85650    1.000
    C53      C        0.92481    0.73252    0.65330    1.000
    C54      C        0.84796    0.87133    0.72252    1.000
    H45      H        0.80270    0.89590    0.68580    1.000
    C55      C        0.92332    0.85732    0.35481    1.000
    H46      H        0.97340    0.87290    0.36690    1.000
    C56      C        0.43705    0.16308    0.93111    1.000
    C57      C        0.91099    0.28321    0.80780    1.000
    C58      C        0.90798    0.77863    0.56407    1.000
    H47      H        0.90130    0.84690    0.53770    1.000
    C59      C        0.99261    0.75694    0.76289    1.000
    H48      H        0.04520    0.70160    0.75540    1.000
    C60      C        0.43233    0.12070    0.02754    1.000
    H49      H        0.36910    0.11290    0.07690    1.000
    C61      C        0.53210    0.16745    0.86137    1.000
    H50      H        0.53840    0.19180    0.79470    1.000
    C62      C        0.90078    0.72573    0.51286    1.000
    C63      C        0.92792    0.57774    0.64126    1.000
    C64      C        0.61734    0.13591    0.89015    1.000
    H51      H        0.68180    0.14010    0.84190    1.000
    C65      C        0.91105    0.62507    0.55201    1.000
    H52      H        0.90650    0.58860    0.51770    1.000
    C66      C        0.52144    0.09001    0.05038    1.000
    H53      H        0.51760    0.06090    0.11640    1.000
    C67      C        0.93528    0.63211    0.69083    1.000
    H54      H        0.94760    0.60010    0.75100    1.000
    C68      C        0.30121    0.31404    0.89934    1.000
    C69      C        0.98454    0.32408    0.80433    1.000
    H55      H        0.02930    0.28740    0.84110    1.000
    C70      C        0.34115    0.20586    0.90202    1.000
    H56      H        0.28750    0.16850    0.95020    1.000
    C71      C        0.92927    0.47265    0.69020    1.000
    C72      C        0.85030    0.33519    0.74895    1.000
    H57      H        0.80140    0.30670    0.74960    1.000
    C73      C        0.37760    0.63763    0.86850    1.000
    C74      C        0.99246    0.41814    0.74738    1.000
    H58      H        0.04140    0.44620    0.74700    1.000
    C75      C        0.80587    0.75598    0.40061    1.000
    H59      H        0.77660    0.70130    0.44300    1.000
    C76      C        0.35290    0.72126    0.97830    1.000
    H60      H        0.36050    0.71950    0.03570    1.000
    C77      C        0.86060    0.42865    0.68908    1.000
    H61      H        0.82060    0.46260    0.64730    1.000
    C78      C        0.38620    0.63634    0.95300    1.000
    H62      H        0.41450    0.57790    0.99300    1.000
    C79      C        0.33479    0.48691    0.86881    1.000
    C80      C        0.30260    0.80653    0.84420    1.000
    H63      H        0.27320    0.86560    0.80590    1.000
    C81      C        0.33520    0.72490    0.81330    1.000
    H64      H        0.32860    0.72870    0.75470    1.000
    C82      C        0.41620    0.54747    0.83490    1.000
    H65      H        0.43660    0.57100    0.76270    1.000
    O17      O        0.50520    0.48850    0.85800    1.000
    H66      H        0.55480    0.51540    0.82170    1.000
    B11      B        0.36650    0.40011    0.81150    1.000
    H67      H        0.44000    0.38460    0.75410    1.000
    B12      B        0.23980    0.33850    0.00840    1.000
    H68      H        0.22980    0.28160    0.08030    1.000
    B13      B        0.35930    0.36899    0.93440    1.000
    H69      H        0.42870    0.33340    0.95740    1.000
    B14      B        0.25040    0.39205    0.80910    1.000
    H70      H        0.24690    0.37100    0.75050    1.000
    B15      B        0.27330    0.50650    0.78930    1.000
    H71      H        0.28560    0.56260    0.71690    1.000
    B16      B        0.15230    0.47770    0.86300    1.000
    H72      H        0.08350    0.51440    0.83910    1.000
    B17      B        0.17150    0.35410    0.93090    1.000
    H73      H        0.11590    0.30790    0.95200    1.000
    B18      B        0.26170    0.45340    0.98830    1.000
    H74      H        0.26620    0.47440    0.04660    1.000
    B19      B        0.20740    0.53870    0.89880    1.000
    H75      H        0.17570    0.61620    0.89840    1.000
    B20      B        0.14490    0.44390    0.98690    1.000
    H76      H        0.07160    0.45760    0.04510    1.000
    H77      H        0.47200    0.50510    0.86210    1.000
    O18      O        0.45370    0.56870    0.74210    1.000
    H78      H        0.51010    0.58390    0.72380    1.000
    Co3      Co       0.00000    0.00000    0.00000    1.000
