# CIF file generated by openbabel 3.1.0, see https://openbabel.org
data_I
_chemical_name_common 'image0'
_cell_length_a 24.274
_cell_length_b 25.634
_cell_length_c 11.0898
_cell_angle_alpha 90
_cell_angle_beta 114.924
_cell_angle_gamma 90
_space_group_name_H-M_alt 'P 1'
_space_group_name_Hall 'P 1'
loop_
    _symmetry_equiv_pos_as_xyz
    x,y,z
loop_
    _atom_site_label
    _atom_site_type_symbol
    _atom_site_fract_x
    _atom_site_fract_y
    _atom_site_fract_z
    _atom_site_occupancy
    Ni1      Ni       0.74394    0.42056    0.02015    1.000
    Ni2      Ni       0.75579    0.46172    0.48234    1.000
    Ni3      Ni       0.74908    0.43908    0.74980    1.000
    O1       O        0.69920    0.37730    0.71370    1.000
    C1       C        0.52780    0.08690    0.65890    1.000
    H1       H        0.48690    0.09360    0.63530    1.000
    C2       C        0.97690    0.71230    0.94890    1.000
    C3       C        0.52510    0.17400    0.54980    1.000
    C4       C        0.55430    0.12250    0.61730    1.000
    O2       O        0.81760    0.49630    0.79830    1.000
    C5       C        0.94330    0.75730    0.87410    1.000
    C6       C        0.57090    0.25710    0.53160    1.000
    H2       H        0.55110    0.25290    0.43990    1.000
    C7       C        0.92560    0.62210    0.96840    1.000
    H3       H        0.94220    0.62570    0.06040    1.000
    C8       C        0.56310    0.22240    0.61050    1.000
    C9       C        0.97890    0.79330    0.83500    1.000
    H4       H        0.01950    0.78910    0.85160    1.000
    O3       O        0.68850    0.36060    0.91090    1.000
    C10      C        0.91140    0.65410    0.74820    1.000
    H5       H        0.91440    0.67970    0.69160    1.000
    C11      C        0.63460    0.30560    0.72680    1.000
    C12      C        0.88500    0.84580    0.73130    1.000
    C13      C        0.93960    0.66160    0.89440    1.000
    C14      C        0.86450    0.57040    0.77870    1.000
    C15      C        0.58730    0.23150    0.74390    1.000
    H6       H        0.57720    0.20930    0.79780    1.000
    C16      C        0.62730    0.27380    0.80360    1.000
    H7       H        0.64700    0.27760    0.89550    1.000
    C17      C        0.88080    0.60860    0.69910    1.000
    H8       H        0.86940    0.60120    0.60970    1.000
    C18      C        0.61200    0.02940    0.76070    1.000
    C19      C        0.89170    0.58210    0.91790    1.000
    H9       H        0.88450    0.55940    0.97520    1.000
    O4       O        0.80910    0.51480    0.59740    1.000
    C20      C        0.61080    0.30270    0.58740    1.000
    H10      H        0.61920    0.32710    0.53550    1.000
    O5       O        0.71000    0.47010    0.87120    1.000
    H11      H        0.72330    0.50550    0.89870    1.000
    H12      H        0.66600    0.46880    0.82840    1.000
    C21      C        0.93980    0.83810    0.76430    1.000
    H13      H        0.95970    0.86460    0.74100    1.000
    C22      C        0.54820    0.04060    0.73140    1.000
    H14      H        0.52410    0.01950    0.75810    1.000
    C23      C        0.67350    0.35150    0.78450    1.000
    C24      C        0.85550    0.80870    0.77100    1.000
    H15      H        0.81460    0.81270    0.75210    1.000
    O6       O        0.69350    0.47010    0.56840    1.000
    H16      H        0.68320    0.50630    0.57450    1.000
    H17      H        0.65680    0.44980    0.52270    1.000
    O7       O        0.80210    0.39910    0.93050    1.000
    H18      H        0.80370    0.36170    0.91890    1.000
    H19      H        0.84280    0.41320    0.97630    1.000
    C25      C        0.64830    0.06430    0.72400    1.000
    H20      H        0.68870    0.05600    0.74650    1.000
    C26      C        0.62240    0.11460    0.64920    1.000
    H21      H        0.64510    0.13820    0.62500    1.000
    N1       N        0.81740    0.42860    0.43220    1.000
    O8       O        0.82750    0.33140    0.67130    1.000
    C27      C        0.81740    0.36660    0.61110    1.000
    O9       O        0.78450    0.39980    0.63890    1.000
    C28      C        0.87840    0.45410    0.48310    1.000
    H22      H        0.87720    0.48330    0.42650    1.000
    H23      H        0.88940    0.46720    0.57240    1.000
    C29      C        0.88510    0.76810    0.83500    1.000
    H24      H        0.86250    0.74330    0.85620    1.000
    C30      C        0.92430    0.41510    0.48410    1.000
    H25      H        0.96530    0.42510    0.54390    1.000
    H26      H        0.92210    0.40900    0.39580    1.000
    C31      C        0.83360    0.37640    0.49430    1.000
    H27      H        0.81180    0.35050    0.42570    1.000
    C32      C        0.90210    0.36810    0.53600    1.000
    H28      H        0.92350    0.36590    0.63200    1.000
    H29      H        0.90890    0.33610    0.49770    1.000
    C33      C        0.82460    0.52390    0.72320    1.000
    O10      O        0.62140    0.96000    0.90370    1.000
    C34      C        0.64610    0.98700    0.84020    1.000
    O11      O        0.68530    0.97050    0.84840    1.000
    O12      O        0.89580    0.92550    0.62380    1.000
    C35      C        0.86430    0.90090    0.65020    1.000
    O13      O        0.79440    0.90070    0.63570    1.000
    Ni4      Ni       0.24394    0.92056    0.02015    1.000
    Ni5      Ni       0.25579    0.96172    0.48234    1.000
    Ni6      Ni       0.24908    0.93908    0.74980    1.000
    O14      O        0.19920    0.87730    0.71370    1.000
    C36      C        0.02780    0.58690    0.65890    1.000
    H30      H        0.98690    0.59360    0.63530    1.000
    C37      C        0.47690    0.21230    0.94890    1.000
    C38      C        0.02510    0.67400    0.54980    1.000
    C39      C        0.05430    0.62250    0.61730    1.000
    O15      O        0.31760    0.99630    0.79830    1.000
    C40      C        0.44330    0.25730    0.87410    1.000
    C41      C        0.07090    0.75710    0.53160    1.000
    H31      H        0.05110    0.75290    0.43990    1.000
    C42      C        0.42560    0.12210    0.96840    1.000
    H32      H        0.44220    0.12570    0.06040    1.000
    C43      C        0.06310    0.72240    0.61050    1.000
    C44      C        0.47890    0.29330    0.83500    1.000
    H33      H        0.51950    0.28910    0.85160    1.000
    O16      O        0.18850    0.86060    0.91090    1.000
    C45      C        0.41140    0.15410    0.74820    1.000
    H34      H        0.41440    0.17970    0.69160    1.000
    C46      C        0.13460    0.80560    0.72680    1.000
    C47      C        0.38500    0.34580    0.73130    1.000
    C48      C        0.43960    0.16160    0.89440    1.000
    C49      C        0.36450    0.07040    0.77870    1.000
    C50      C        0.08730    0.73150    0.74390    1.000
    H35      H        0.07720    0.70930    0.79780    1.000
    C51      C        0.12730    0.77380    0.80360    1.000
    H36      H        0.14700    0.77760    0.89550    1.000
    C52      C        0.38080    0.10860    0.69910    1.000
    H37      H        0.36940    0.10120    0.60970    1.000
    C53      C        0.11200    0.52940    0.76070    1.000
    C54      C        0.39170    0.08210    0.91790    1.000
    H38      H        0.38450    0.05940    0.97520    1.000
    O17      O        0.30910    0.01480    0.59740    1.000
    C55      C        0.11080    0.80270    0.58740    1.000
    H39      H        0.11920    0.82710    0.53550    1.000
    O18      O        0.21000    0.97010    0.87120    1.000
    H40      H        0.22330    0.00550    0.89870    1.000
    H41      H        0.16600    0.96880    0.82840    1.000
    C56      C        0.43980    0.33810    0.76430    1.000
    H42      H        0.45970    0.36460    0.74100    1.000
    C57      C        0.04820    0.54060    0.73140    1.000
    H43      H        0.02410    0.51950    0.75810    1.000
    C58      C        0.17350    0.85150    0.78450    1.000
    C59      C        0.35550    0.30870    0.77100    1.000
    H44      H        0.31460    0.31270    0.75210    1.000
    O19      O        0.19350    0.97010    0.56840    1.000
    H45      H        0.18320    0.00630    0.57450    1.000
    H46      H        0.15680    0.94980    0.52270    1.000
    O20      O        0.30210    0.89910    0.93050    1.000
    H47      H        0.30370    0.86170    0.91890    1.000
    H48      H        0.34280    0.91320    0.97630    1.000
    C60      C        0.14830    0.56430    0.72400    1.000
    H49      H        0.18870    0.55600    0.74650    1.000
    C61      C        0.12240    0.61460    0.64920    1.000
    H50      H        0.14510    0.63820    0.62500    1.000
    N2       N        0.31740    0.92860    0.43220    1.000
    O21      O        0.32750    0.83140    0.67130    1.000
    C62      C        0.31740    0.86660    0.61110    1.000
    O22      O        0.28450    0.89980    0.63890    1.000
    C63      C        0.37840    0.95410    0.48310    1.000
    H51      H        0.37720    0.98330    0.42650    1.000
    H52      H        0.38940    0.96720    0.57240    1.000
    C64      C        0.38510    0.26810    0.83500    1.000
    H53      H        0.36250    0.24330    0.85620    1.000
    C65      C        0.42430    0.91510    0.48410    1.000
    H54      H        0.46530    0.92510    0.54390    1.000
    H55      H        0.42210    0.90900    0.39580    1.000
    C66      C        0.33360    0.87640    0.49430    1.000
    H56      H        0.31180    0.85050    0.42570    1.000
    C67      C        0.40210    0.86810    0.53600    1.000
    H57      H        0.42350    0.86590    0.63200    1.000
    H58      H        0.40890    0.83610    0.49770    1.000
    C68      C        0.32460    0.02390    0.72320    1.000
    O23      O        0.12140    0.46000    0.90370    1.000
    C69      C        0.14610    0.48700    0.84020    1.000
    O24      O        0.18530    0.47050    0.84840    1.000
    O25      O        0.39580    0.42550    0.62380    1.000
    C70      C        0.36430    0.40090    0.65020    1.000
    O26      O        0.29440    0.40070    0.63570    1.000
    Ni7      Ni       0.25606    0.42056    0.97985    1.000
    Ni8      Ni       0.24421    0.46172    0.51766    1.000
    Ni9      Ni       0.25092    0.43908    0.25020    1.000
    O27      O        0.30080    0.37730    0.28630    1.000
    C71      C        0.47220    0.08690    0.34110    1.000
    H59      H        0.51310    0.09360    0.36470    1.000
    C72      C        0.02310    0.71230    0.05110    1.000
    C73      C        0.47490    0.17400    0.45020    1.000
    C74      C        0.44570    0.12250    0.38270    1.000
    O28      O        0.18240    0.49630    0.20170    1.000
    C75      C        0.05670    0.75730    0.12590    1.000
    C76      C        0.42910    0.25710    0.46840    1.000
    H60      H        0.44890    0.25290    0.56010    1.000
    C77      C        0.07440    0.62210    0.03160    1.000
    H61      H        0.05780    0.62570    0.93960    1.000
    C78      C        0.43690    0.22240    0.38950    1.000
    C79      C        0.02110    0.79330    0.16500    1.000
    H62      H        0.98050    0.78910    0.14840    1.000
    O29      O        0.31150    0.36060    0.08910    1.000
    C80      C        0.08860    0.65410    0.25180    1.000
    H63      H        0.08560    0.67970    0.30840    1.000
    C81      C        0.36540    0.30560    0.27320    1.000
    C82      C        0.11500    0.84580    0.26870    1.000
    C83      C        0.06040    0.66160    0.10560    1.000
    C84      C        0.13550    0.57040    0.22130    1.000
    C85      C        0.41270    0.23150    0.25610    1.000
    H64      H        0.42280    0.20930    0.20220    1.000
    C86      C        0.37270    0.27380    0.19640    1.000
    H65      H        0.35300    0.27760    0.10450    1.000
    C87      C        0.11920    0.60860    0.30090    1.000
    H66      H        0.13060    0.60120    0.39030    1.000
    C88      C        0.38800    0.02940    0.23930    1.000
    C89      C        0.10830    0.58210    0.08210    1.000
    H67      H        0.11550    0.55940    0.02480    1.000
    O30      O        0.19090    0.51480    0.40260    1.000
    C90      C        0.38920    0.30270    0.41260    1.000
    H68      H        0.38080    0.32710    0.46450    1.000
    O31      O        0.29000    0.47010    0.12880    1.000
    H69      H        0.27670    0.50550    0.10130    1.000
    H70      H        0.33400    0.46880    0.17160    1.000
    C91      C        0.06020    0.83810    0.23570    1.000
    H71      H        0.04030    0.86460    0.25900    1.000
    C92      C        0.45180    0.04060    0.26860    1.000
    H72      H        0.47590    0.01950    0.24190    1.000
    C93      C        0.32650    0.35150    0.21550    1.000
    C94      C        0.14450    0.80870    0.22900    1.000
    H73      H        0.18540    0.81270    0.24790    1.000
    O32      O        0.30650    0.47010    0.43160    1.000
    H74      H        0.31680    0.50630    0.42550    1.000
    H75      H        0.34320    0.44980    0.47730    1.000
    O33      O        0.19790    0.39910    0.06950    1.000
    H76      H        0.19630    0.36170    0.08110    1.000
    H77      H        0.15720    0.41320    0.02370    1.000
    C95      C        0.35170    0.06430    0.27600    1.000
    H78      H        0.31130    0.05600    0.25350    1.000
    C96      C        0.37760    0.11460    0.35080    1.000
    H79      H        0.35490    0.13820    0.37500    1.000
    N3       N        0.18260    0.42860    0.56780    1.000
    O34      O        0.17250    0.33140    0.32870    1.000
    C97      C        0.18260    0.36660    0.38890    1.000
    O35      O        0.21550    0.39980    0.36110    1.000
    C98      C        0.12160    0.45410    0.51690    1.000
    H80      H        0.12280    0.48330    0.57350    1.000
    H81      H        0.11060    0.46720    0.42760    1.000
    C99      C        0.11490    0.76810    0.16500    1.000
    H82      H        0.13750    0.74330    0.14380    1.000
    C100     C        0.07570    0.41510    0.51590    1.000
    H83      H        0.03470    0.42510    0.45610    1.000
    H84      H        0.07790    0.40900    0.60420    1.000
    C101     C        0.16640    0.37640    0.50570    1.000
    H85      H        0.18820    0.35050    0.57430    1.000
    C102     C        0.09790    0.36810    0.46400    1.000
    H86      H        0.07650    0.36590    0.36800    1.000
    H87      H        0.09110    0.33610    0.50230    1.000
    C103     C        0.17540    0.52390    0.27680    1.000
    O36      O        0.37860    0.96000    0.09630    1.000
    C104     C        0.35390    0.98700    0.15980    1.000
    O37      O        0.31470    0.97050    0.15160    1.000
    O38      O        0.10420    0.92550    0.37620    1.000
    C105     C        0.13570    0.90090    0.34980    1.000
    O39      O        0.20560    0.90070    0.36430    1.000
    Ni10     Ni       0.75606    0.92056    0.97985    1.000
    Ni11     Ni       0.74421    0.96172    0.51766    1.000
    Ni12     Ni       0.75092    0.93908    0.25020    1.000
    O40      O        0.80080    0.87730    0.28630    1.000
    C106     C        0.97220    0.58690    0.34110    1.000
    H88      H        0.01310    0.59360    0.36470    1.000
    C107     C        0.52310    0.21230    0.05110    1.000
    C108     C        0.97490    0.67400    0.45020    1.000
    C109     C        0.94570    0.62250    0.38270    1.000
    O41      O        0.68240    0.99630    0.20170    1.000
    C110     C        0.55670    0.25730    0.12590    1.000
    C111     C        0.92910    0.75710    0.46840    1.000
    H89      H        0.94890    0.75290    0.56010    1.000
    C112     C        0.57440    0.12210    0.03160    1.000
    H90      H        0.55780    0.12570    0.93960    1.000
    C113     C        0.93690    0.72240    0.38950    1.000
    C114     C        0.52110    0.29330    0.16500    1.000
    H91      H        0.48050    0.28910    0.14840    1.000
    O42      O        0.81150    0.86060    0.08910    1.000
    C115     C        0.58860    0.15410    0.25180    1.000
    H92      H        0.58560    0.17970    0.30840    1.000
    C116     C        0.86540    0.80560    0.27320    1.000
    C117     C        0.61500    0.34580    0.26870    1.000
    C118     C        0.56040    0.16160    0.10560    1.000
    C119     C        0.63550    0.07040    0.22130    1.000
    C120     C        0.91270    0.73150    0.25610    1.000
    H93      H        0.92280    0.70930    0.20220    1.000
    C121     C        0.87270    0.77380    0.19640    1.000
    H94      H        0.85300    0.77760    0.10450    1.000
    C122     C        0.61920    0.10860    0.30090    1.000
    H95      H        0.63060    0.10120    0.39030    1.000
    C123     C        0.88800    0.52940    0.23930    1.000
    C124     C        0.60830    0.08210    0.08210    1.000
    H96      H        0.61550    0.05940    0.02480    1.000
    O43      O        0.69090    0.01480    0.40260    1.000
    C125     C        0.88920    0.80270    0.41260    1.000
    H97      H        0.88080    0.82710    0.46450    1.000
    O44      O        0.79000    0.97010    0.12880    1.000
    H98      H        0.77670    0.00550    0.10130    1.000
    H99      H        0.83400    0.96880    0.17160    1.000
    C126     C        0.56020    0.33810    0.23570    1.000
    H100     H        0.54030    0.36460    0.25900    1.000
    C127     C        0.95180    0.54060    0.26860    1.000
    H101     H        0.97590    0.51950    0.24190    1.000
    C128     C        0.82650    0.85150    0.21550    1.000
    C129     C        0.64450    0.30870    0.22900    1.000
    H102     H        0.68540    0.31270    0.24790    1.000
    O45      O        0.80650    0.97010    0.43160    1.000
    H103     H        0.81680    0.00630    0.42550    1.000
    H104     H        0.84320    0.94980    0.47730    1.000
    O46      O        0.69790    0.89910    0.06950    1.000
    H105     H        0.69630    0.86170    0.08110    1.000
    H106     H        0.65720    0.91320    0.02370    1.000
    C130     C        0.85170    0.56430    0.27600    1.000
    H107     H        0.81130    0.55600    0.25350    1.000
    C131     C        0.87760    0.61460    0.35080    1.000
    H108     H        0.85490    0.63820    0.37500    1.000
    N4       N        0.68260    0.92860    0.56780    1.000
    O47      O        0.67250    0.83140    0.32870    1.000
    C132     C        0.68260    0.86660    0.38890    1.000
    O48      O        0.71550    0.89980    0.36110    1.000
    C133     C        0.62160    0.95410    0.51690    1.000
    H109     H        0.62280    0.98330    0.57350    1.000
    H110     H        0.61060    0.96720    0.42760    1.000
    C134     C        0.61490    0.26810    0.16500    1.000
    H111     H        0.63750    0.24330    0.14380    1.000
    C135     C        0.57570    0.91510    0.51590    1.000
    H112     H        0.53470    0.92510    0.45610    1.000
    H113     H        0.57790    0.90900    0.60420    1.000
    C136     C        0.66640    0.87640    0.50570    1.000
    H114     H        0.68820    0.85050    0.57430    1.000
    C137     C        0.59790    0.86810    0.46400    1.000
    H115     H        0.57650    0.86590    0.36800    1.000
    H116     H        0.59110    0.83610    0.50230    1.000
    C138     C        0.67540    0.02390    0.27680    1.000
    O49      O        0.87860    0.46000    0.09630    1.000
    C139     C        0.85390    0.48700    0.15980    1.000
    O50      O        0.81470    0.47050    0.15160    1.000
    O51      O        0.60420    0.42550    0.37620    1.000
    C140     C        0.63570    0.40090    0.34980    1.000
    O52      O        0.70560    0.40070    0.36430    1.000
