# CIF file generated by openbabel 3.1.0, see https://openbabel.org
data_I
_chemical_name_common 'image0'
_cell_length_a 33.657
_cell_length_b 14.2909
_cell_length_c 12.8304
_cell_angle_alpha 90
_cell_angle_beta 124.037
_cell_angle_gamma 90
_space_group_name_H-M_alt 'P 1'
_space_group_name_Hall 'P 1'
loop_
    _symmetry_equiv_pos_as_xyz
    x,y,z
loop_
    _atom_site_label
    _atom_site_type_symbol
    _atom_site_fract_x
    _atom_site_fract_y
    _atom_site_fract_z
    _atom_site_occupancy
    Ce1      Ce       0.82007    0.28812    0.07760    1.000
    O1       O        0.39482    0.83100    0.29030    1.000
    O2       O        0.38564    0.68170    0.24100    1.000
    O3       O        0.73112    0.35130    0.99500    1.000
    O4       O        0.79363    0.43880    0.12270    1.000
    O5       O        0.77065    0.68690    0.35150    1.000
    O6       O        0.69836    0.75090    0.26700    1.000
    O7       O        0.85080    0.19110    0.96950    1.000
    C1       C        0.40797    0.74840    0.31870    1.000
    C2       C        0.45025    0.72500    0.44720    1.000
    C3       C        0.46344    0.63340    0.48430    1.000
    H1       H        0.44450    0.58510    0.43060    1.000
    C4       C        0.50460    0.61240    0.60080    1.000
    H2       H        0.51310    0.55040    0.62550    1.000
    C5       C        0.53309    0.68520    0.68070    1.000
    C6       C        0.51880    0.77630    0.64440    1.000
    H3       H        0.53770    0.82490    0.69760    1.000
    C7       C        0.47730    0.79670    0.53110    1.000
    H4       H        0.46710    0.85840    0.51030    1.000
    C8       C        0.57811    0.66680    0.79970    1.000
    C9       C        0.74947    0.42560    0.05910    1.000
    C10      C        0.71751    0.49950    0.05660    1.000
    C11      C        0.67027    0.50610    0.95540    1.000
    H5       H        0.65750    0.46260    0.89040    1.000
    C12      C        0.64207    0.57870    0.95200    1.000
    C13      C        0.66014    0.63880    0.05410    1.000
    H6       H        0.64070    0.68490    0.05430    1.000
    C14      C        0.70752    0.62970    0.15590    1.000
    C15      C        0.73572    0.56170    0.15520    1.000
    H7       H        0.76770    0.55710    0.22220    1.000
    C16      C        0.72746    0.69460    0.26810    1.000
    C17      C        0.88000    0.17670    0.94700    1.000
    C18      C        0.87860    0.08820    0.88210    1.000
    H8       H        0.88760    0.10150    0.82470    1.000
    H9       H        0.84670    0.06290    0.83650    1.000
    H10      H        0.90050    0.04360    0.94350    1.000
    C19      C        0.92760    0.22350    0.99840    1.000
    H11      H        0.94130    0.20050    0.95460    1.000
    H12      H        0.94890    0.20980    0.08640    1.000
    H13      H        0.92310    0.28990    0.98670    1.000
    N1       N        0.59441    0.58640    0.84060    1.000
    H14      H        0.59200    0.72200    0.84600    1.000
    O8       O        0.87080    0.22340    0.01330    1.000
    Ce2      Ce       0.32007    0.78812    0.07760    1.000
    O9       O        0.89482    0.33100    0.29030    1.000
    O10      O        0.88564    0.18170    0.24100    1.000
    O11      O        0.23112    0.85130    0.99500    1.000
    O12      O        0.29363    0.93880    0.12270    1.000
    O13      O        0.27065    0.18690    0.35150    1.000
    O14      O        0.19836    0.25090    0.26700    1.000
    O15      O        0.35080    0.69110    0.96950    1.000
    C20      C        0.90797    0.24840    0.31870    1.000
    C21      C        0.95025    0.22500    0.44720    1.000
    C22      C        0.96344    0.13340    0.48430    1.000
    H15      H        0.94450    0.08510    0.43060    1.000
    C23      C        0.00460    0.11240    0.60080    1.000
    H16      H        0.01310    0.05040    0.62550    1.000
    C24      C        0.03309    0.18520    0.68070    1.000
    C25      C        0.01880    0.27630    0.64440    1.000
    H17      H        0.03770    0.32490    0.69760    1.000
    C26      C        0.97730    0.29670    0.53110    1.000
    H18      H        0.96710    0.35840    0.51030    1.000
    C27      C        0.07811    0.16680    0.79970    1.000
    C28      C        0.24947    0.92560    0.05910    1.000
    C29      C        0.21751    0.99950    0.05660    1.000
    C30      C        0.17027    0.00610    0.95540    1.000
    H19      H        0.15750    0.96260    0.89040    1.000
    C31      C        0.14207    0.07870    0.95200    1.000
    C32      C        0.16014    0.13880    0.05410    1.000
    H20      H        0.14070    0.18490    0.05430    1.000
    C33      C        0.20752    0.12970    0.15590    1.000
    C34      C        0.23572    0.06170    0.15520    1.000
    H21      H        0.26770    0.05710    0.22220    1.000
    C35      C        0.22746    0.19460    0.26810    1.000
    C36      C        0.38000    0.67670    0.94700    1.000
    C37      C        0.37860    0.58820    0.88210    1.000
    H22      H        0.38760    0.60150    0.82470    1.000
    H23      H        0.34670    0.56290    0.83650    1.000
    H24      H        0.40050    0.54360    0.94350    1.000
    C38      C        0.42760    0.72350    0.99840    1.000
    H25      H        0.44130    0.70050    0.95460    1.000
    H26      H        0.44890    0.70980    0.08640    1.000
    H27      H        0.42310    0.78990    0.98670    1.000
    N2       N        0.09441    0.08640    0.84060    1.000
    H28      H        0.09200    0.22200    0.84600    1.000
    O16      O        0.37080    0.72340    0.01330    1.000
    Ce3      Ce       0.17993    0.28812    0.42240    1.000
    O17      O        0.60518    0.83100    0.20970    1.000
    O18      O        0.61436    0.68170    0.25900    1.000
    O19      O        0.26888    0.35130    0.50500    1.000
    O20      O        0.20637    0.43880    0.37730    1.000
    O21      O        0.22935    0.68690    0.14850    1.000
    O22      O        0.30164    0.75090    0.23300    1.000
    O23      O        0.14920    0.19110    0.53050    1.000
    C39      C        0.59203    0.74840    0.18130    1.000
    C40      C        0.54975    0.72500    0.05280    1.000
    C41      C        0.53656    0.63340    0.01570    1.000
    H29      H        0.55550    0.58510    0.06940    1.000
    C42      C        0.49540    0.61240    0.89920    1.000
    H30      H        0.48690    0.55040    0.87450    1.000
    C43      C        0.46691    0.68520    0.81930    1.000
    C44      C        0.48120    0.77630    0.85560    1.000
    H31      H        0.46230    0.82490    0.80240    1.000
    C45      C        0.52270    0.79670    0.96890    1.000
    H32      H        0.53290    0.85840    0.98970    1.000
    C46      C        0.42189    0.66680    0.70030    1.000
    C47      C        0.25053    0.42560    0.44090    1.000
    C48      C        0.28249    0.49950    0.44340    1.000
    C49      C        0.32973    0.50610    0.54460    1.000
    H33      H        0.34250    0.46260    0.60960    1.000
    C50      C        0.35793    0.57870    0.54800    1.000
    C51      C        0.33986    0.63880    0.44590    1.000
    H34      H        0.35930    0.68490    0.44570    1.000
    C52      C        0.29248    0.62970    0.34410    1.000
    C53      C        0.26428    0.56170    0.34480    1.000
    H35      H        0.23230    0.55710    0.27780    1.000
    C54      C        0.27254    0.69460    0.23190    1.000
    C55      C        0.12000    0.17670    0.55300    1.000
    C56      C        0.12140    0.08820    0.61790    1.000
    H36      H        0.11240    0.10150    0.67530    1.000
    H37      H        0.15330    0.06290    0.66350    1.000
    H38      H        0.09950    0.04360    0.55650    1.000
    C57      C        0.07240    0.22350    0.50160    1.000
    H39      H        0.05870    0.20050    0.54540    1.000
    H40      H        0.05110    0.20980    0.41360    1.000
    H41      H        0.07690    0.28990    0.51330    1.000
    N3       N        0.40559    0.58640    0.65940    1.000
    H42      H        0.40800    0.72200    0.65400    1.000
    O24      O        0.12920    0.22340    0.48670    1.000
    Ce4      Ce       0.67993    0.78812    0.42240    1.000
    O25      O        0.10518    0.33100    0.20970    1.000
    O26      O        0.11436    0.18170    0.25900    1.000
    O27      O        0.76888    0.85130    0.50500    1.000
    O28      O        0.70637    0.93880    0.37730    1.000
    O29      O        0.72935    0.18690    0.14850    1.000
    O30      O        0.80164    0.25090    0.23300    1.000
    O31      O        0.64920    0.69110    0.53050    1.000
    C58      C        0.09203    0.24840    0.18130    1.000
    C59      C        0.04975    0.22500    0.05280    1.000
    C60      C        0.03656    0.13340    0.01570    1.000
    H43      H        0.05550    0.08510    0.06940    1.000
    C61      C        0.99540    0.11240    0.89920    1.000
    H44      H        0.98690    0.05040    0.87450    1.000
    C62      C        0.96691    0.18520    0.81930    1.000
    C63      C        0.98120    0.27630    0.85560    1.000
    H45      H        0.96230    0.32490    0.80240    1.000
    C64      C        0.02270    0.29670    0.96890    1.000
    H46      H        0.03290    0.35840    0.98970    1.000
    C65      C        0.92189    0.16680    0.70030    1.000
    C66      C        0.75053    0.92560    0.44090    1.000
    C67      C        0.78249    0.99950    0.44340    1.000
    C68      C        0.82973    0.00610    0.54460    1.000
    H47      H        0.84250    0.96260    0.60960    1.000
    C69      C        0.85793    0.07870    0.54800    1.000
    C70      C        0.83986    0.13880    0.44590    1.000
    H48      H        0.85930    0.18490    0.44570    1.000
    C71      C        0.79248    0.12970    0.34410    1.000
    C72      C        0.76428    0.06170    0.34480    1.000
    H49      H        0.73230    0.05710    0.27780    1.000
    C73      C        0.77254    0.19460    0.23190    1.000
    C74      C        0.62000    0.67670    0.55300    1.000
    C75      C        0.62140    0.58820    0.61790    1.000
    H50      H        0.61240    0.60150    0.67530    1.000
    H51      H        0.65330    0.56290    0.66350    1.000
    H52      H        0.59950    0.54360    0.55650    1.000
    C76      C        0.57240    0.72350    0.50160    1.000
    H53      H        0.55870    0.70050    0.54540    1.000
    H54      H        0.55110    0.70980    0.41360    1.000
    H55      H        0.57690    0.78990    0.51330    1.000
    N4       N        0.90559    0.08640    0.65940    1.000
    H56      H        0.90800    0.22200    0.65400    1.000
    O32      O        0.62920    0.72340    0.48670    1.000
    Ce5      Ce       0.17993    0.71188    0.92240    1.000
    O33      O        0.60518    0.16900    0.70970    1.000
    O34      O        0.61436    0.31830    0.75900    1.000
    O35      O        0.26888    0.64870    0.00500    1.000
    O36      O        0.20637    0.56120    0.87730    1.000
    O37      O        0.22935    0.31310    0.64850    1.000
    O38      O        0.30164    0.24910    0.73300    1.000
    O39      O        0.14920    0.80890    0.03050    1.000
    C77      C        0.59203    0.25160    0.68130    1.000
    C78      C        0.54975    0.27500    0.55280    1.000
    C79      C        0.53656    0.36660    0.51570    1.000
    H57      H        0.55550    0.41490    0.56940    1.000
    C80      C        0.49540    0.38760    0.39920    1.000
    H58      H        0.48690    0.44960    0.37450    1.000
    C81      C        0.46691    0.31480    0.31930    1.000
    C82      C        0.48120    0.22370    0.35560    1.000
    H59      H        0.46230    0.17510    0.30240    1.000
    C83      C        0.52270    0.20330    0.46890    1.000
    H60      H        0.53290    0.14160    0.48970    1.000
    C84      C        0.42189    0.33320    0.20030    1.000
    C85      C        0.25053    0.57440    0.94090    1.000
    C86      C        0.28249    0.50050    0.94340    1.000
    C87      C        0.32973    0.49390    0.04460    1.000
    H61      H        0.34250    0.53740    0.10960    1.000
    C88      C        0.35793    0.42130    0.04800    1.000
    C89      C        0.33986    0.36120    0.94590    1.000
    H62      H        0.35930    0.31510    0.94570    1.000
    C90      C        0.29248    0.37030    0.84410    1.000
    C91      C        0.26428    0.43830    0.84480    1.000
    H63      H        0.23230    0.44290    0.77780    1.000
    C92      C        0.27254    0.30540    0.73190    1.000
    C93      C        0.12000    0.82330    0.05300    1.000
    C94      C        0.12140    0.91180    0.11790    1.000
    H64      H        0.11240    0.89850    0.17530    1.000
    H65      H        0.15330    0.93710    0.16350    1.000
    H66      H        0.09950    0.95640    0.05650    1.000
    C95      C        0.07240    0.77650    0.00160    1.000
    H67      H        0.05870    0.79950    0.04540    1.000
    H68      H        0.05110    0.79020    0.91360    1.000
    H69      H        0.07690    0.71010    0.01330    1.000
    N5       N        0.40559    0.41360    0.15940    1.000
    H70      H        0.40800    0.27800    0.15400    1.000
    O40      O        0.12920    0.77660    0.98670    1.000
    Ce6      Ce       0.67993    0.21188    0.92240    1.000
    O41      O        0.10518    0.66900    0.70970    1.000
    O42      O        0.11436    0.81830    0.75900    1.000
    O43      O        0.76888    0.14870    0.00500    1.000
    O44      O        0.70637    0.06120    0.87730    1.000
    O45      O        0.72935    0.81310    0.64850    1.000
    O46      O        0.80164    0.74910    0.73300    1.000
    O47      O        0.64920    0.30890    0.03050    1.000
    C96      C        0.09203    0.75160    0.68130    1.000
    C97      C        0.04975    0.77500    0.55280    1.000
    C98      C        0.03656    0.86660    0.51570    1.000
    H71      H        0.05550    0.91490    0.56940    1.000
    C99      C        0.99540    0.88760    0.39920    1.000
    H72      H        0.98690    0.94960    0.37450    1.000
    C100     C        0.96691    0.81480    0.31930    1.000
    C101     C        0.98120    0.72370    0.35560    1.000
    H73      H        0.96230    0.67510    0.30240    1.000
    C102     C        0.02270    0.70330    0.46890    1.000
    H74      H        0.03290    0.64160    0.48970    1.000
    C103     C        0.92189    0.83320    0.20030    1.000
    C104     C        0.75053    0.07440    0.94090    1.000
    C105     C        0.78249    0.00050    0.94340    1.000
    C106     C        0.82973    0.99390    0.04460    1.000
    H75      H        0.84250    0.03740    0.10960    1.000
    C107     C        0.85793    0.92130    0.04800    1.000
    C108     C        0.83986    0.86120    0.94590    1.000
    H76      H        0.85930    0.81510    0.94570    1.000
    C109     C        0.79248    0.87030    0.84410    1.000
    C110     C        0.76428    0.93830    0.84480    1.000
    H77      H        0.73230    0.94290    0.77780    1.000
    C111     C        0.77254    0.80540    0.73190    1.000
    C112     C        0.62000    0.32330    0.05300    1.000
    C113     C        0.62140    0.41180    0.11790    1.000
    H78      H        0.61240    0.39850    0.17530    1.000
    H79      H        0.65330    0.43710    0.16350    1.000
    H80      H        0.59950    0.45640    0.05650    1.000
    C114     C        0.57240    0.27650    0.00160    1.000
    H81      H        0.55870    0.29950    0.04540    1.000
    H82      H        0.55110    0.29020    0.91360    1.000
    H83      H        0.57690    0.21010    0.01330    1.000
    N6       N        0.90559    0.91360    0.15940    1.000
    H84      H        0.90800    0.77800    0.15400    1.000
    O48      O        0.62920    0.27660    0.98670    1.000
    Ce7      Ce       0.82007    0.71188    0.57760    1.000
    O49      O        0.39482    0.16900    0.79030    1.000
    O50      O        0.38564    0.31830    0.74100    1.000
    O51      O        0.73112    0.64870    0.49500    1.000
    O52      O        0.79363    0.56120    0.62270    1.000
    O53      O        0.77065    0.31310    0.85150    1.000
    O54      O        0.69836    0.24910    0.76700    1.000
    O55      O        0.85080    0.80890    0.46950    1.000
    C115     C        0.40797    0.25160    0.81870    1.000
    C116     C        0.45025    0.27500    0.94720    1.000
    C117     C        0.46344    0.36660    0.98430    1.000
    H85      H        0.44450    0.41490    0.93060    1.000
    C118     C        0.50460    0.38760    0.10080    1.000
    H86      H        0.51310    0.44960    0.12550    1.000
    C119     C        0.53309    0.31480    0.18070    1.000
    C120     C        0.51880    0.22370    0.14440    1.000
    H87      H        0.53770    0.17510    0.19760    1.000
    C121     C        0.47730    0.20330    0.03110    1.000
    H88      H        0.46710    0.14160    0.01030    1.000
    C122     C        0.57811    0.33320    0.29970    1.000
    C123     C        0.74947    0.57440    0.55910    1.000
    C124     C        0.71751    0.50050    0.55660    1.000
    C125     C        0.67027    0.49390    0.45540    1.000
    H89      H        0.65750    0.53740    0.39040    1.000
    C126     C        0.64207    0.42130    0.45200    1.000
    C127     C        0.66014    0.36120    0.55410    1.000
    H90      H        0.64070    0.31510    0.55430    1.000
    C128     C        0.70752    0.37030    0.65590    1.000
    C129     C        0.73572    0.43830    0.65520    1.000
    H91      H        0.76770    0.44290    0.72220    1.000
    C130     C        0.72746    0.30540    0.76810    1.000
    C131     C        0.88000    0.82330    0.44700    1.000
    C132     C        0.87860    0.91180    0.38210    1.000
    H92      H        0.88760    0.89850    0.32470    1.000
    H93      H        0.84670    0.93710    0.33650    1.000
    H94      H        0.90050    0.95640    0.44350    1.000
    C133     C        0.92760    0.77650    0.49840    1.000
    H95      H        0.94130    0.79950    0.45460    1.000
    H96      H        0.94890    0.79020    0.58640    1.000
    H97      H        0.92310    0.71010    0.48670    1.000
    N7       N        0.59441    0.41360    0.34060    1.000
    H98      H        0.59200    0.27800    0.34600    1.000
    O56      O        0.87080    0.77660    0.51330    1.000
    Ce8      Ce       0.32007    0.21188    0.57760    1.000
    O57      O        0.89482    0.66900    0.79030    1.000
    O58      O        0.88564    0.81830    0.74100    1.000
    O59      O        0.23112    0.14870    0.49500    1.000
    O60      O        0.29363    0.06120    0.62270    1.000
    O61      O        0.27065    0.81310    0.85150    1.000
    O62      O        0.19836    0.74910    0.76700    1.000
    O63      O        0.35080    0.30890    0.46950    1.000
    C134     C        0.90797    0.75160    0.81870    1.000
    C135     C        0.95025    0.77500    0.94720    1.000
    C136     C        0.96344    0.86660    0.98430    1.000
    H99      H        0.94450    0.91490    0.93060    1.000
    C137     C        0.00460    0.88760    0.10080    1.000
    H100     H        0.01310    0.94960    0.12550    1.000
    C138     C        0.03309    0.81480    0.18070    1.000
    C139     C        0.01880    0.72370    0.14440    1.000
    H101     H        0.03770    0.67510    0.19760    1.000
    C140     C        0.97730    0.70330    0.03110    1.000
    H102     H        0.96710    0.64160    0.01030    1.000
    C141     C        0.07811    0.83320    0.29970    1.000
    C142     C        0.24947    0.07440    0.55910    1.000
    C143     C        0.21751    0.00050    0.55660    1.000
    C144     C        0.17027    0.99390    0.45540    1.000
    H103     H        0.15750    0.03740    0.39040    1.000
    C145     C        0.14207    0.92130    0.45200    1.000
    C146     C        0.16014    0.86120    0.55410    1.000
    H104     H        0.14070    0.81510    0.55430    1.000
    C147     C        0.20752    0.87030    0.65590    1.000
    C148     C        0.23572    0.93830    0.65520    1.000
    H105     H        0.26770    0.94290    0.72220    1.000
    C149     C        0.22746    0.80540    0.76810    1.000
    C150     C        0.38000    0.32330    0.44700    1.000
    C151     C        0.37860    0.41180    0.38210    1.000
    H106     H        0.38760    0.39850    0.32470    1.000
    H107     H        0.34670    0.43710    0.33650    1.000
    H108     H        0.40050    0.45640    0.44350    1.000
    C152     C        0.42760    0.27650    0.49840    1.000
    H109     H        0.44130    0.29950    0.45460    1.000
    H110     H        0.44890    0.29020    0.58640    1.000
    H111     H        0.42310    0.21010    0.48670    1.000
    N8       N        0.09441    0.91360    0.34060    1.000
    H112     H        0.09200    0.77800    0.34600    1.000
    O64      O        0.37080    0.27660    0.51330    1.000
