# CIF file generated by openbabel 3.1.0, see https://openbabel.org
data_I
_chemical_name_common 'image0'
_cell_length_a 11.072
_cell_length_b 12.676
_cell_length_c 16.022
_cell_angle_alpha 100.291
_cell_angle_beta 105.884
_cell_angle_gamma 95.927
_space_group_name_H-M_alt 'P 1'
_space_group_name_Hall 'P 1'
loop_
    _symmetry_equiv_pos_as_xyz
    x,y,z
loop_
    _atom_site_label
    _atom_site_type_symbol
    _atom_site_fract_x
    _atom_site_fract_y
    _atom_site_fract_z
    _atom_site_occupancy
    Eu1      Eu       0.00183    0.75874    0.38251    1.000
    Eu2      Eu       0.44208    0.25877    0.87204    1.000
    O1       O        0.08890    0.12050    0.10030    1.000
    O2       O        0.90450    0.92450    0.32960    1.000
    O3       O        0.11230    0.93670    0.37620    1.000
    O4       O        0.00690    0.29770    0.47460    1.000
    O5       O        0.01190    0.12330    0.47950    1.000
    O6       O        0.62530    0.18140    0.82950    1.000
    O7       O        0.65310    0.24380    0.97150    1.000
    O8       O        0.23070    0.27680    0.87330    1.000
    O9       O        0.05500    0.28350    0.77010    1.000
    O10      O        0.63570    0.61560    0.60990    1.000
    O11      O        0.40380    0.43760    0.82850    1.000
    O12      O        0.60390    0.41760    0.87010    1.000
    O13      O        0.53610    0.62360    0.98270    1.000
    O14      O        0.57740    0.79860    0.99110    1.000
    O15      O        0.22080    0.77680    0.48770    1.000
    O16      O        0.20220    0.72460    0.34620    1.000
    O17      O        0.78560    0.71200    0.36440    1.000
    O18      O        0.62720    0.77670    0.28370    1.000
    C1       C        0.06060    0.14110    0.17950    1.000
    C2       C        0.04640    0.05620    0.21980    1.000
    H1       H        0.04660    0.98580    0.19080    1.000
    C3       C        0.03180    0.07570    0.30430    1.000
    C4       C        0.02840    0.17750    0.34710    1.000
    C5       C        0.03650    0.26360    0.30440    1.000
    H2       H        0.02930    0.33270    0.33220    1.000
    C6       C        0.05530    0.24750    0.21940    1.000
    H3       H        0.06380    0.30490    0.19140    1.000
    C7       C        0.01660    0.97500    0.34090    1.000
    C8       C        0.01330    0.20170    0.43840    1.000
    C9       C        0.02620    0.16210    0.02860    1.000
    C10      C        0.89730    0.16680    0.00810    1.000
    H4       H        0.85220    0.14980    0.04640    1.000
    C11      C        0.83540    0.19720    0.93010    1.000
    C12      C        0.90470    0.22740    0.87440    1.000
    H5       H        0.86410    0.24710    0.82180    1.000
    C13      C        0.03480    0.22730    0.89920    1.000
    C14      C        0.09580    0.19410    0.97730    1.000
    H6       H        0.18320    0.19410    0.99350    1.000
    C15      C        0.69540    0.20540    0.90860    1.000
    C16      C        0.11270    0.26390    0.84290    1.000
    C17      C        0.60830    0.64000    0.69060    1.000
    C18      C        0.57450    0.55360    0.72460    1.000
    H7       H        0.56420    0.48300    0.69210    1.000
    C19      C        0.55580    0.57240    0.80790    1.000
    C20      C        0.56980    0.67950    0.85660    1.000
    C21      C        0.60370    0.76450    0.81970    1.000
    H8       H        0.61580    0.83520    0.85230    1.000
    C22      C        0.62050    0.74840    0.73570    1.000
    H9       H        0.63880    0.80640    0.71050    1.000
    C23      C        0.52430    0.47240    0.83970    1.000
    C24      C        0.56030    0.70040    0.94720    1.000
    C25      C        0.57990    0.66090    0.54090    1.000
    C26      C        0.45760    0.68490    0.52330    1.000
    H10      H        0.41190    0.67730    0.56330    1.000
    C27      C        0.40250    0.72010    0.44650    1.000
    C28      C        0.47230    0.73630    0.38880    1.000
    H11      H        0.43590    0.76090    0.33780    1.000
    C29      C        0.59630    0.71600    0.40720    1.000
    C30      C        0.65070    0.67640    0.48220    1.000
    H12      H        0.73300    0.66030    0.49330    1.000
    C31      C        0.26810    0.74190    0.42780    1.000
    C32      C        0.67560    0.73800    0.34750    1.000
    K1       K        0.23160    0.00900    0.55780    1.000
    K2       K        0.71770    0.47800    0.05510    1.000
    O19      O        0.44400    0.99800    0.49600    1.000
    Eu3      Eu       0.99817    0.24126    0.61749    1.000
    Eu4      Eu       0.55792    0.74123    0.12796    1.000
    O20      O        0.91110    0.87950    0.89970    1.000
    O21      O        0.09550    0.07550    0.67040    1.000
    O22      O        0.88770    0.06330    0.62380    1.000
    O23      O        0.99310    0.70230    0.52540    1.000
    O24      O        0.98810    0.87670    0.52050    1.000
    O25      O        0.37470    0.81860    0.17050    1.000
    O26      O        0.34690    0.75620    0.02850    1.000
    O27      O        0.76930    0.72320    0.12670    1.000
    O28      O        0.94500    0.71650    0.22990    1.000
    O29      O        0.36430    0.38440    0.39010    1.000
    O30      O        0.59620    0.56240    0.17150    1.000
    O31      O        0.39610    0.58240    0.12990    1.000
    O32      O        0.46390    0.37640    0.01730    1.000
    O33      O        0.42260    0.20140    0.00890    1.000
    O34      O        0.77920    0.22320    0.51230    1.000
    O35      O        0.79780    0.27540    0.65380    1.000
    O36      O        0.21440    0.28800    0.63560    1.000
    O37      O        0.37280    0.22330    0.71630    1.000
    C33      C        0.93940    0.85890    0.82050    1.000
    C34      C        0.95360    0.94380    0.78020    1.000
    H13      H        0.95340    0.01420    0.80920    1.000
    C35      C        0.96820    0.92430    0.69570    1.000
    C36      C        0.97160    0.82250    0.65290    1.000
    C37      C        0.96350    0.73640    0.69560    1.000
    H14      H        0.97070    0.66730    0.66780    1.000
    C38      C        0.94470    0.75250    0.78060    1.000
    H15      H        0.93620    0.69510    0.80860    1.000
    C39      C        0.98340    0.02500    0.65910    1.000
    C40      C        0.98670    0.79830    0.56160    1.000
    C41      C        0.97380    0.83790    0.97140    1.000
    C42      C        0.10270    0.83320    0.99190    1.000
    H16      H        0.14780    0.85020    0.95360    1.000
    C43      C        0.16460    0.80280    0.06990    1.000
    C44      C        0.09530    0.77260    0.12560    1.000
    H17      H        0.13590    0.75290    0.17820    1.000
    C45      C        0.96520    0.77270    0.10080    1.000
    C46      C        0.90420    0.80590    0.02270    1.000
    H18      H        0.81680    0.80590    0.00650    1.000
    C47      C        0.30460    0.79460    0.09140    1.000
    C48      C        0.88730    0.73610    0.15710    1.000
    C49      C        0.39170    0.36000    0.30940    1.000
    C50      C        0.42550    0.44640    0.27540    1.000
    H19      H        0.43580    0.51700    0.30790    1.000
    C51      C        0.44420    0.42760    0.19210    1.000
    C52      C        0.43020    0.32050    0.14340    1.000
    C53      C        0.39630    0.23550    0.18030    1.000
    H20      H        0.38420    0.16480    0.14770    1.000
    C54      C        0.37950    0.25160    0.26430    1.000
    H21      H        0.36120    0.19360    0.28950    1.000
    C55      C        0.47570    0.52760    0.16030    1.000
    C56      C        0.43970    0.29960    0.05280    1.000
    C57      C        0.42010    0.33910    0.45910    1.000
    C58      C        0.54240    0.31510    0.47670    1.000
    H22      H        0.58810    0.32270    0.43670    1.000
    C59      C        0.59750    0.27990    0.55350    1.000
    C60      C        0.52770    0.26370    0.61120    1.000
    H23      H        0.56410    0.23910    0.66220    1.000
    C61      C        0.40370    0.28400    0.59280    1.000
    C62      C        0.34930    0.32360    0.51780    1.000
    H24      H        0.26700    0.33970    0.50670    1.000
    C63      C        0.73190    0.25810    0.57220    1.000
    C64      C        0.32440    0.26200    0.65250    1.000
    K3       K        0.76840    0.99100    0.44220    1.000
    K4       K        0.28230    0.52200    0.94490    1.000
    O38      O        0.55600    0.00200    0.50400    1.000
