# CIF file generated by openbabel 3.1.0, see https://openbabel.org
data_I
_chemical_name_common 'MOVFOU_clean'
_cell_length_a 12.293
_cell_length_b 14.538
_cell_length_c 18.583
_cell_angle_alpha 90
_cell_angle_beta 90
_cell_angle_gamma 97.063
_space_group_name_H-M_alt 'P 1'
_space_group_name_Hall 'P 1'
loop_
    _symmetry_equiv_pos_as_xyz
    x,y,z
loop_
    _atom_site_label
    _atom_site_type_symbol
    _atom_site_fract_x
    _atom_site_fract_y
    _atom_site_fract_z
    _atom_site_occupancy
    Co1      Co       0.00000    0.00000    0.00000    1.000
    Co2      Co       0.50000    0.50000    0.50000    1.000
    Co3      Co       0.00000    0.50000    0.50000    1.000
    Co4      Co       0.50000    0.00000    0.00000    1.000
    H1       H        0.39940    0.94620    0.27060    1.000
    H2       H        0.73740    0.42920    0.95900    1.000
    H3       H        0.96040    0.48020    0.33020    1.000
    H4       H        0.60060    0.05380    0.72940    1.000
    H5       H        0.84430    0.64280    0.47010    1.000
    H6       H        0.33870    0.99260    0.45310    1.000
    H7       H        0.58320    0.39530    0.77270    1.000
    H8       H        0.89310    0.05960    0.26330    1.000
    H9       H        0.66130    0.50740    0.95310    1.000
    H10      H        0.34140    0.05560    0.75230    1.000
    H11      H        0.83300    0.38110    0.06530    1.000
    H12      H        0.88370    0.04590    0.67110    1.000
    H13      H        0.83300    0.88110    0.43470    1.000
    H14      H        0.77120    0.72450    0.38130    1.000
    H15      H        0.74840    0.31480    0.21110    1.000
    H16      H        0.51850    0.18430    0.36400    1.000
    H17      H        0.26850    0.73820    0.59950    1.000
    H18      H        0.21330    0.31910    0.80830    1.000
    H19      H        0.26260    0.07080    0.45900    1.000
    H20      H        0.11230    0.60580    0.13940    1.000
    H21      H        0.96040    0.98020    0.16980    1.000
    H22      H        0.78670    0.18090    0.30830    1.000
    H23      H        0.26850    0.23820    0.90050    1.000
    H24      H        0.61370    0.10870    0.44590    1.000
    H25      H        0.97790    0.27380    0.92090    1.000
    H26      H        0.57630    0.02070    0.15920    1.000
    H27      H        0.56030    0.70190    0.82300    1.000
    H28      H        0.58320    0.89530    0.72730    1.000
    H29      H        0.25160    0.68520    0.78890    1.000
    H30      H        0.25160    0.18520    0.71110    1.000
    H31      H        0.65860    0.94440    0.24770    1.000
    H32      H        0.11630    0.45410    0.17110    1.000
    H33      H        0.22880    0.27550    0.61870    1.000
    H34      H        0.02410    0.65880    0.86720    1.000
    H35      H        0.61370    0.60870    0.05410    1.000
    H36      H        0.43970    0.79810    0.32300    1.000
    H37      H        0.84430    0.14280    0.02990    1.000
    H38      H        0.16700    0.11890    0.56530    1.000
    H39      H        0.35200    0.65730    0.51520    1.000
    H40      H        0.38630    0.39130    0.94590    1.000
    H41      H        0.26260    0.57080    0.04100    1.000
    H42      H        0.11230    0.10580    0.36060    1.000
    H43      H        0.02210    0.22620    0.42090    1.000
    H44      H        0.10690    0.44040    0.76330    1.000
    H45      H        0.38630    0.89130    0.55410    1.000
    H46      H        0.43970    0.29810    0.17700    1.000
    H47      H        0.57630    0.52070    0.34080    1.000
    H48      H        0.11630    0.95410    0.32890    1.000
    H49      H        0.88370    0.54590    0.82890    1.000
    H50      H        0.65860    0.44440    0.25230    1.000
    H51      H        0.97590    0.34120    0.13280    1.000
    H52      H        0.15570    0.85720    0.97010    1.000
    H53      H        0.64800    0.84270    0.01520    1.000
    H54      H        0.60060    0.55380    0.77060    1.000
    H55      H        0.73150    0.26180    0.40050    1.000
    H56      H        0.41680    0.60470    0.22730    1.000
    H57      H        0.64800    0.34270    0.48480    1.000
    H58      H        0.88770    0.89420    0.63940    1.000
    H59      H        0.16700    0.61890    0.93470    1.000
    H60      H        0.42370    0.97930    0.84080    1.000
    H61      H        0.15570    0.35720    0.52990    1.000
    H62      H        0.39940    0.44620    0.22940    1.000
    H63      H        0.35200    0.15730    0.98480    1.000
    H64      H        0.77120    0.22450    0.11870    1.000
    H65      H        0.66130    0.00740    0.54690    1.000
    H66      H        0.88770    0.39420    0.86060    1.000
    H67      H        0.10690    0.94040    0.73670    1.000
    H68      H        0.56030    0.20190    0.67700    1.000
    H69      H        0.73150    0.76180    0.09950    1.000
    H70      H        0.02210    0.72620    0.07910    1.000
    H71      H        0.22880    0.77550    0.88130    1.000
    H72      H        0.21330    0.81910    0.69170    1.000
    H73      H        0.02410    0.15880    0.63280    1.000
    H74      H        0.51850    0.68430    0.13600    1.000
    H75      H        0.97590    0.84120    0.36720    1.000
    H76      H        0.33870    0.49260    0.04690    1.000
    H77      H        0.03960    0.01980    0.83020    1.000
    H78      H        0.97790    0.77380    0.57910    1.000
    H79      H        0.48150    0.31570    0.86400    1.000
    H80      H        0.73740    0.92920    0.54100    1.000
    H81      H        0.41680    0.10470    0.27270    1.000
    H82      H        0.74840    0.81480    0.28890    1.000
    H83      H        0.03960    0.51980    0.66980    1.000
    H84      H        0.42370    0.47930    0.65920    1.000
    H85      H        0.78670    0.68090    0.19170    1.000
    H86      H        0.89310    0.55960    0.23670    1.000
    H87      H        0.34140    0.55560    0.74770    1.000
    H88      H        0.48150    0.81570    0.63600    1.000
    C1       C        0.30083    0.68644    0.61338    1.000
    C2       C        0.42757    0.92507    0.58926    1.000
    C3       C        0.82682    0.15452    0.20337    1.000
    C4       C        0.45198    0.07240    0.30708    1.000
    C5       C        0.02603    0.59710    0.87970    1.000
    C6       C        0.89338    0.80622    0.99352    1.000
    C7       C        0.25321    0.21164    0.75669    1.000
    C8       C        0.03171    0.81882    0.56170    1.000
    C9       C        0.11174    0.57305    0.92043    1.000
    C10      C        0.74679    0.28836    0.25669    1.000
    C11      C        0.48473    0.37985    0.86140    1.000
    C12      C        0.94391    0.93883    0.62441    1.000
    C13      C        0.88291    0.57863    0.28378    1.000
    C14      C        0.05895    0.47078    0.14333    1.000
    C15      C        0.49889    0.42837    0.14406    1.000
    C16      C        0.50111    0.57163    0.85594    1.000
    C17      C        0.88826    0.92695    0.42043    1.000
    C18      C        0.35097    0.13706    0.93730    1.000
    C19      C        0.57243    0.57493    0.08926    1.000
    C20      C        0.07617    0.46905    0.65933    1.000
    C21      C        0.94105    0.02922    0.64333    1.000
    C22      C        0.03036    0.91160    0.58262    1.000
    C23      C        0.38873    0.66916    0.95637    1.000
    C24      C        0.02603    0.09710    0.62030    1.000
    C25      C        0.94391    0.43883    0.87559    1.000
    C26      C        0.11741    0.48030    0.94097    1.000
    C27      C        0.10662    0.69378    0.49352    1.000
    C28      C        0.42757    0.42507    0.91074    1.000
    C29      C        0.85512    0.62637    0.42256    1.000
    C30      C        0.07617    0.96905    0.84067    1.000
    C31      C        0.48473    0.87985    0.63860    1.000
    C32      C        0.49230    0.32196    0.59083    1.000
    C33      C        0.48533    0.33023    0.14311    1.000
    C34      C        0.79790    0.04636    0.48605    1.000
    C35      C        0.17318    0.34548    0.70337    1.000
    C36      C        0.92383    0.03095    0.15933    1.000
    C37      C        0.39302    0.53259    0.64703    1.000
    C38      C        0.92383    0.53095    0.34067    1.000
    C39      C        0.88954    0.70691    0.01625    1.000
    C40      C        0.85512    0.12637    0.07744    1.000
    C41      C        0.60698    0.46741    0.35297    1.000
    C42      C        0.79790    0.54636    0.01395    1.000
    C43      C        0.62879    0.92672    0.45750    1.000
    C44      C        0.64903    0.36294    0.43730    1.000
    C45      C        0.51467    0.16977    0.64311    1.000
    C46      C        0.37121    0.07328    0.54250    1.000
    C47      C        0.49230    0.82196    0.90917    1.000
    C48      C        0.88291    0.07863    0.21622    1.000
    C49      C        0.78573    0.20670    0.26250    1.000
    C50      C        0.34391    0.07858    0.79901    1.000
    C51      C        0.97397    0.90290    0.37970    1.000
    C52      C        0.25321    0.71164    0.74331    1.000
    C53      C        0.20210    0.95364    0.51395    1.000
    C54      C        0.51527    0.12015    0.36140    1.000
    C55      C        0.53764    0.28143    0.09368    1.000
    C56      C        0.81116    0.67641    0.36926    1.000
    C57      C        0.80500    0.63795    0.99078    1.000
    C58      C        0.44303    0.97832    0.30549    1.000
    C59      C        0.81116    0.17641    0.13074    1.000
    C60      C        0.45198    0.57240    0.19292    1.000
    C61      C        0.78573    0.70670    0.23750    1.000
    C62      C        0.11046    0.29309    0.98375    1.000
    C63      C        0.38873    0.16916    0.54363    1.000
    C64      C        0.88954    0.20691    0.48375    1.000
    C65      C        0.49889    0.92837    0.35594    1.000
    C66      C        0.39302    0.03259    0.85297    1.000
    C67      C        0.96964    0.58840    0.08262    1.000
    C68      C        0.94105    0.52922    0.85667    1.000
    C69      C        0.69917    0.81356    0.11338    1.000
    C70      C        0.11046    0.79309    0.51625    1.000
    C71      C        0.50111    0.07163    0.64406    1.000
    C72      C        0.29812    0.15963    0.81482    1.000
    C73      C        0.03036    0.41160    0.91738    1.000
    C74      C        0.96829    0.68118    0.06170    1.000
    C75      C        0.30083    0.18644    0.88662    1.000
    C76      C        0.65609    0.42142    0.29901    1.000
    C77      C        0.05895    0.97078    0.35667    1.000
    C78      C        0.03171    0.31882    0.93830    1.000
    C79      C        0.56927    0.47663    0.09134    1.000
    C80      C        0.70188    0.84037    0.18518    1.000
    C81      C        0.82682    0.65452    0.29663    1.000
    C82      C        0.96829    0.18118    0.43830    1.000
    C83      C        0.19500    0.36205    0.00922    1.000
    C84      C        0.97397    0.40290    0.12030    1.000
    C85      C        0.29483    0.52406    0.01372    1.000
    C86      C        0.88259    0.51970    0.05903    1.000
    C87      C        0.11709    0.92137    0.78378    1.000
    C88      C        0.57243    0.07493    0.41074    1.000
    C89      C        0.70517    0.97594    0.51372    1.000
    C90      C        0.61127    0.83084    0.45637    1.000
    C91      C        0.29812    0.65963    0.68518    1.000
    C92      C        0.55697    0.52168    0.80549    1.000
    C93      C        0.46236    0.21857    0.59368    1.000
    C94      C        0.48533    0.83023    0.35689    1.000
    C95      C        0.54802    0.42760    0.80708    1.000
    C96      C        0.62879    0.42672    0.04250    1.000
    C97      C        0.70188    0.34037    0.31482    1.000
    C98      C        0.18884    0.82359    0.86926    1.000
    C99      C        0.17318    0.84548    0.79663    1.000
    C100     C        0.14488    0.37363    0.57744    1.000
    C101     C        0.19500    0.86205    0.49078    1.000
    C102     C        0.18884    0.32359    0.63074    1.000
    C103     C        0.44303    0.47832    0.19451    1.000
    C104     C        0.35097    0.63706    0.56270    1.000
    C105     C        0.20210    0.45364    0.98605    1.000
    C106     C        0.05609    0.56117    0.12441    1.000
    C107     C        0.34391    0.57858    0.70099    1.000
    C108     C        0.51527    0.62015    0.13860    1.000
    C109     C        0.46236    0.71857    0.90632    1.000
    C110     C        0.29483    0.02406    0.48628    1.000
    C111     C        0.54802    0.92760    0.69292    1.000
    C112     C        0.14488    0.87363    0.92256    1.000
    C113     C        0.21427    0.79330    0.73750    1.000
    C114     C        0.50770    0.67804    0.40917    1.000
    C115     C        0.55697    0.02168    0.69451    1.000
    C116     C        0.88259    0.01970    0.44097    1.000
    C117     C        0.21427    0.29330    0.76250    1.000
    C118     C        0.53764    0.78143    0.40632    1.000
    C119     C        0.11741    0.98030    0.55903    1.000
    C120     C        0.10662    0.19378    0.00648    1.000
    C121     C        0.51467    0.66977    0.85689    1.000
    C122     C        0.88826    0.42695    0.07957    1.000
    C123     C        0.11174    0.07305    0.57957    1.000
    C124     C        0.37121    0.57328    0.95750    1.000
    C125     C        0.69917    0.31356    0.38662    1.000
    C126     C        0.70517    0.47594    0.98628    1.000
    C127     C        0.60698    0.96741    0.14703    1.000
    C128     C        0.43073    0.02337    0.59134    1.000
    C129     C        0.43073    0.52337    0.90866    1.000
    C130     C        0.65609    0.92142    0.20099    1.000
    C131     C        0.61127    0.33084    0.04363    1.000
    C132     C        0.74679    0.78836    0.24331    1.000
    C133     C        0.89338    0.30622    0.50648    1.000
    C134     C        0.96964    0.08840    0.41738    1.000
    C135     C        0.64903    0.86294    0.06270    1.000
    C136     C        0.50770    0.17804    0.09083    1.000
    C137     C        0.80500    0.13795    0.50922    1.000
    C138     C        0.11709    0.42137    0.71622    1.000
    C139     C        0.05609    0.06117    0.37559    1.000
    C140     C        0.56927    0.97663    0.40866    1.000
    N1       N        0.60111    0.43948    0.42172    1.000
    N2       N        0.08694    0.94530    0.90981    1.000
    N3       N        0.39889    0.06052    0.92172    1.000
    N4       N        0.60111    0.93948    0.07828    1.000
    N5       N        0.08694    0.44530    0.59019    1.000
    N6       N        0.91306    0.05470    0.09019    1.000
    N7       N        0.91306    0.55470    0.40981    1.000
    N8       N        0.39889    0.56052    0.57828    1.000
    O1       O        0.56159    0.35913    0.63441    1.000
    O2       O        0.27201    0.83797    0.44409    1.000
    O3       O        0.44679    0.86611    0.95817    1.000
    O4       O        0.72799    0.16203    0.55591    1.000
    O5       O        0.55321    0.63389    0.45817    1.000
    O6       O        0.33364    0.71843    0.00460    1.000
    O7       O        0.04591    0.63437    0.52880    1.000
    O8       O        0.16545    0.17615    0.05981    1.000
    O9       O        0.95409    0.36563    0.47120    1.000
    O10      O        0.95409    0.86563    0.02880    1.000
    O11      O        0.04591    0.13437    0.97120    1.000
    O12      O        0.66636    0.28157    0.99540    1.000
    O13      O        0.72799    0.66203    0.94409    1.000
    O14      O        0.44679    0.36611    0.54183    1.000
    O15      O        0.27201    0.33797    0.05591    1.000
    O16      O        0.66636    0.78157    0.50460    1.000
    O17      O        0.16545    0.67615    0.44019    1.000
    O18      O        0.83455    0.82385    0.94019    1.000
    O19      O        0.56159    0.85913    0.86559    1.000
    O20      O        0.33364    0.21843    0.49540    1.000
    O21      O        0.55321    0.13389    0.04183    1.000
    O22      O        0.43841    0.14087    0.13441    1.000
    O23      O        0.43841    0.64087    0.36559    1.000
    O24      O        0.83455    0.32385    0.55981    1.000
