# CIF file generated by openbabel 3.1.0, see https://openbabel.org
data_I
_chemical_name_common 'image0'
_cell_length_a 8.9836
_cell_length_b 10.5918
_cell_length_c 32.7196
_cell_angle_alpha 90
_cell_angle_beta 90
_cell_angle_gamma 90
_space_group_name_H-M_alt 'P 1'
_space_group_name_Hall 'P 1'
loop_
    _symmetry_equiv_pos_as_xyz
    x,y,z
loop_
    _atom_site_label
    _atom_site_type_symbol
    _atom_site_fract_x
    _atom_site_fract_y
    _atom_site_fract_z
    _atom_site_occupancy
    Ca1      Ca       0.45425    0.90115    0.24889    1.000
    O1       O        0.51320    0.75130    0.20010    1.000
    O2       O        0.58410    0.55070    0.20104    1.000
    O3       O        0.98950    0.44480    0.79940    1.000
    O4       O        0.07970    0.25100    0.79760    1.000
    C1       C        0.51120    0.64230    0.18640    1.000
    C2       C        0.42150    0.62110    0.14850    1.000
    C3       C        0.40750    0.49890    0.13210    1.000
    H1       H        0.45620    0.43000    0.14490    1.000
    C4       C        0.32290    0.47820    0.09710    1.000
    H2       H        0.31630    0.39560    0.08590    1.000
    C5       C        0.24890    0.57610    0.07850    1.000
    C6       C        0.25920    0.69590    0.09570    1.000
    H3       H        0.20580    0.76380    0.08360    1.000
    C7       C        0.34460    0.71810    0.12970    1.000
    H4       H        0.35110    0.80130    0.14040    1.000
    C8       C        0.15120    0.55570    0.04200    1.000
    C9       C        0.98910    0.58760    0.04730    1.000
    C10      C        0.90480    0.63720    0.01640    1.000
    H5       H        0.95010    0.65650    0.99100    1.000
    C11      C        0.75400    0.65970    0.02190    1.000
    H6       H        0.69630    0.69270    0.00000    1.000
    C12      C        0.68820    0.63470    0.05860    1.000
    H7       H        0.58520    0.65180    0.06220    1.000
    C13      C        0.76830    0.58590    0.08960    1.000
    H8       H        0.72180    0.56910    0.11520    1.000
    C14      C        0.92100    0.55970    0.08430    1.000
    H9       H        0.97700    0.52320    0.10590    1.000
    C15      C        0.20310    0.51340    0.00630    1.000
    H10      H        0.13240    0.49930    0.98530    1.000
    C16      C        0.35780    0.48700    0.99690    1.000
    H11      H        0.42840    0.50060    0.01800    1.000
    C17      C        0.41080    0.44480    0.96060    1.000
    C18      C        0.57190    0.41970    0.95470    1.000
    C19      C        0.65810    0.36660    0.98510    1.000
    H12      H        0.61430    0.34630    0.01070    1.000
    C20      C        0.81140    0.34210    0.97850    1.000
    H13      H        0.87080    0.30710    0.99970    1.000
    C21      C        0.87240    0.36910    0.94170    1.000
    H14      H        0.97510    0.35310    0.93710    1.000
    C22      C        0.78660    0.42000    0.91040    1.000
    H15      H        0.82950    0.43890    0.88460    1.000
    C23      C        0.63800    0.44240    0.91770    1.000
    H16      H        0.57860    0.47510    0.89610    1.000
    C24      C        0.31310    0.42260    0.92460    1.000
    C25      C        0.29890    0.30090    0.90820    1.000
    H17      H        0.34550    0.23150    0.92140    1.000
    C26      C        0.21740    0.28160    0.87300    1.000
    H18      H        0.20910    0.19860    0.86220    1.000
    C27      C        0.14760    0.38040    0.85310    1.000
    C28      C        0.15870    0.49940    0.86950    1.000
    H19      H        0.11160    0.56830    0.85610    1.000
    C29      C        0.23800    0.52060    0.90530    1.000
    H20      H        0.24080    0.60300    0.91680    1.000
    C30      C        0.06360    0.35870    0.81350    1.000
    Ca2      Ca       0.04575    0.09885    0.74889    1.000
    O5       O        0.98680    0.24870    0.70010    1.000
    O6       O        0.91590    0.44930    0.70104    1.000
    O7       O        0.51050    0.55520    0.29940    1.000
    O8       O        0.42030    0.74900    0.29760    1.000
    C31      C        0.98880    0.35770    0.68640    1.000
    C32      C        0.07850    0.37890    0.64850    1.000
    C33      C        0.09250    0.50110    0.63210    1.000
    H21      H        0.04380    0.57000    0.64490    1.000
    C34      C        0.17710    0.52180    0.59710    1.000
    H22      H        0.18370    0.60440    0.58590    1.000
    C35      C        0.25110    0.42390    0.57850    1.000
    C36      C        0.24080    0.30410    0.59570    1.000
    H23      H        0.29420    0.23620    0.58360    1.000
    C37      C        0.15540    0.28190    0.62970    1.000
    H24      H        0.14890    0.19870    0.64040    1.000
    C38      C        0.34880    0.44430    0.54200    1.000
    C39      C        0.51090    0.41240    0.54730    1.000
    C40      C        0.59520    0.36280    0.51640    1.000
    H25      H        0.54990    0.34350    0.49100    1.000
    C41      C        0.74600    0.34030    0.52190    1.000
    H26      H        0.80370    0.30730    0.50000    1.000
    C42      C        0.81180    0.36530    0.55860    1.000
    H27      H        0.91480    0.34820    0.56220    1.000
    C43      C        0.73170    0.41410    0.58960    1.000
    H28      H        0.77820    0.43090    0.61520    1.000
    C44      C        0.57900    0.44030    0.58430    1.000
    H29      H        0.52300    0.47680    0.60590    1.000
    C45      C        0.29690    0.48660    0.50630    1.000
    H30      H        0.36760    0.50070    0.48530    1.000
    C46      C        0.14220    0.51300    0.49690    1.000
    H31      H        0.07160    0.49940    0.51800    1.000
    C47      C        0.08920    0.55520    0.46060    1.000
    C48      C        0.92810    0.58030    0.45470    1.000
    C49      C        0.84190    0.63340    0.48510    1.000
    H32      H        0.88570    0.65370    0.51070    1.000
    C50      C        0.68860    0.65790    0.47850    1.000
    H33      H        0.62920    0.69290    0.49970    1.000
    C51      C        0.62760    0.63090    0.44170    1.000
    H34      H        0.52490    0.64690    0.43710    1.000
    C52      C        0.71340    0.58000    0.41040    1.000
    H35      H        0.67050    0.56110    0.38460    1.000
    C53      C        0.86200    0.55760    0.41770    1.000
    H36      H        0.92140    0.52490    0.39610    1.000
    C54      C        0.18690    0.57740    0.42460    1.000
    C55      C        0.20110    0.69910    0.40820    1.000
    H37      H        0.15450    0.76850    0.42140    1.000
    C56      C        0.28260    0.71840    0.37300    1.000
    H38      H        0.29090    0.80140    0.36220    1.000
    C57      C        0.35240    0.61960    0.35310    1.000
    C58      C        0.34130    0.50060    0.36950    1.000
    H39      H        0.38840    0.43170    0.35610    1.000
    C59      C        0.26200    0.47940    0.40530    1.000
    H40      H        0.25920    0.39700    0.41680    1.000
    C60      C        0.43640    0.64130    0.31350    1.000
    Ca3      Ca       0.54575    0.40115    0.25111    1.000
    O9       O        0.48680    0.25130    0.29990    1.000
    O10      O        0.41590    0.05070    0.29896    1.000
    O11      O        0.01050    0.94480    0.70060    1.000
    O12      O        0.92030    0.75100    0.70240    1.000
    C61      C        0.48880    0.14230    0.31360    1.000
    C62      C        0.57850    0.12110    0.35150    1.000
    C63      C        0.59250    0.99890    0.36790    1.000
    H41      H        0.54380    0.93000    0.35510    1.000
    C64      C        0.67710    0.97820    0.40290    1.000
    H42      H        0.68370    0.89560    0.41410    1.000
    C65      C        0.75110    0.07610    0.42150    1.000
    C66      C        0.74080    0.19590    0.40430    1.000
    H43      H        0.79420    0.26380    0.41640    1.000
    C67      C        0.65540    0.21810    0.37030    1.000
    H44      H        0.64890    0.30130    0.35960    1.000
    C68      C        0.84880    0.05570    0.45800    1.000
    C69      C        0.01090    0.08760    0.45270    1.000
    C70      C        0.09520    0.13720    0.48360    1.000
    H45      H        0.04990    0.15650    0.50900    1.000
    C71      C        0.24600    0.15970    0.47810    1.000
    H46      H        0.30370    0.19270    0.50000    1.000
    C72      C        0.31180    0.13470    0.44140    1.000
    H47      H        0.41480    0.15180    0.43780    1.000
    C73      C        0.23170    0.08590    0.41040    1.000
    H48      H        0.27820    0.06910    0.38480    1.000
    C74      C        0.07900    0.05970    0.41570    1.000
    H49      H        0.02300    0.02320    0.39410    1.000
    C75      C        0.79690    0.01340    0.49370    1.000
    H50      H        0.86760    0.99930    0.51470    1.000
    C76      C        0.64220    0.98700    0.50310    1.000
    H51      H        0.57160    0.00060    0.48200    1.000
    C77      C        0.58920    0.94480    0.53940    1.000
    C78      C        0.42810    0.91970    0.54530    1.000
    C79      C        0.34190    0.86660    0.51490    1.000
    H52      H        0.38570    0.84630    0.48930    1.000
    C80      C        0.18860    0.84210    0.52150    1.000
    H53      H        0.12920    0.80710    0.50030    1.000
    C81      C        0.12760    0.86910    0.55830    1.000
    H54      H        0.02490    0.85310    0.56290    1.000
    C82      C        0.21340    0.92000    0.58960    1.000
    H55      H        0.17050    0.93890    0.61540    1.000
    C83      C        0.36200    0.94240    0.58230    1.000
    H56      H        0.42140    0.97510    0.60390    1.000
    C84      C        0.68690    0.92260    0.57540    1.000
    C85      C        0.70110    0.80090    0.59180    1.000
    H57      H        0.65450    0.73150    0.57860    1.000
    C86      C        0.78260    0.78160    0.62700    1.000
    H58      H        0.79090    0.69860    0.63780    1.000
    C87      C        0.85240    0.88040    0.64690    1.000
    C88      C        0.84130    0.99940    0.63050    1.000
    H59      H        0.88840    0.06830    0.64390    1.000
    C89      C        0.76200    0.02060    0.59470    1.000
    H60      H        0.75920    0.10300    0.58320    1.000
    C90      C        0.93640    0.85870    0.68650    1.000
    Ca4      Ca       0.95425    0.59885    0.75111    1.000
    O13      O        0.01320    0.74870    0.79990    1.000
    O14      O        0.08410    0.94930    0.79896    1.000
    O15      O        0.48950    0.05520    0.20060    1.000
    O16      O        0.57970    0.24900    0.20240    1.000
    C91      C        0.01120    0.85770    0.81360    1.000
    C92      C        0.92150    0.87890    0.85150    1.000
    C93      C        0.90750    0.00110    0.86790    1.000
    H61      H        0.95620    0.07000    0.85510    1.000
    C94      C        0.82290    0.02180    0.90290    1.000
    H62      H        0.81630    0.10440    0.91410    1.000
    C95      C        0.74890    0.92390    0.92150    1.000
    C96      C        0.75920    0.80410    0.90430    1.000
    H63      H        0.70580    0.73620    0.91640    1.000
    C97      C        0.84460    0.78190    0.87030    1.000
    H64      H        0.85110    0.69870    0.85960    1.000
    C98      C        0.65120    0.94430    0.95800    1.000
    C99      C        0.48910    0.91240    0.95270    1.000
    C100     C        0.40480    0.86280    0.98360    1.000
    H65      H        0.45010    0.84350    0.00900    1.000
    C101     C        0.25400    0.84030    0.97810    1.000
    H66      H        0.19630    0.80730    0.00000    1.000
    C102     C        0.18820    0.86530    0.94140    1.000
    H67      H        0.08520    0.84820    0.93780    1.000
    C103     C        0.26830    0.91410    0.91040    1.000
    H68      H        0.22180    0.93090    0.88480    1.000
    C104     C        0.42100    0.94030    0.91570    1.000
    H69      H        0.47700    0.97680    0.89410    1.000
    C105     C        0.70310    0.98660    0.99370    1.000
    H70      H        0.63240    0.00070    0.01470    1.000
    C106     C        0.85780    0.01300    0.00310    1.000
    H71      H        0.92840    0.99940    0.98200    1.000
    C107     C        0.91080    0.05520    0.03940    1.000
    C108     C        0.07190    0.08030    0.04530    1.000
    C109     C        0.15810    0.13340    0.01490    1.000
    H72      H        0.11430    0.15370    0.98930    1.000
    C110     C        0.31140    0.15790    0.02150    1.000
    H73      H        0.37080    0.19290    0.00030    1.000
    C111     C        0.37240    0.13090    0.05830    1.000
    H74      H        0.47510    0.14690    0.06290    1.000
    C112     C        0.28660    0.08000    0.08960    1.000
    H75      H        0.32950    0.06110    0.11540    1.000
    C113     C        0.13800    0.05760    0.08230    1.000
    H76      H        0.07860    0.02490    0.10390    1.000
    C114     C        0.81310    0.07740    0.07540    1.000
    C115     C        0.79890    0.19910    0.09180    1.000
    H77      H        0.84550    0.26850    0.07860    1.000
    C116     C        0.71740    0.21840    0.12700    1.000
    H78      H        0.70910    0.30140    0.13780    1.000
    C117     C        0.64760    0.11960    0.14690    1.000
    C118     C        0.65870    0.00060    0.13050    1.000
    H79      H        0.61160    0.93170    0.14390    1.000
    C119     C        0.73800    0.97940    0.09470    1.000
    H80      H        0.74080    0.89700    0.08320    1.000
    C120     C        0.56360    0.14130    0.18650    1.000
