# CIF file generated by openbabel 3.1.0, see https://openbabel.org
data_I
_chemical_name_common 'image0'
_cell_length_a 8.5409
_cell_length_b 19.1605
_cell_length_c 11.3037
_cell_angle_alpha 90
_cell_angle_beta 110.327
_cell_angle_gamma 90
_space_group_name_H-M_alt 'P 1'
_space_group_name_Hall 'P 1'
loop_
    _symmetry_equiv_pos_as_xyz
    x,y,z
loop_
    _atom_site_label
    _atom_site_type_symbol
    _atom_site_fract_x
    _atom_site_fract_y
    _atom_site_fract_z
    _atom_site_occupancy
    U1       U        0.77227    0.50791    0.01616    1.000
    P1       P        0.76597    0.61555    0.29046    1.000
    P2       P        0.80105    0.43609    0.77488    1.000
    O1       O        0.88460    0.67596    0.32430    1.000
    O2       O        0.78950    0.56419    0.19650    1.000
    O3       O        0.58160    0.64463    0.23690    1.000
    O4       O        0.82590    0.36145    0.74540    1.000
    O5       O        0.94080    0.46688    0.89100    1.000
    O6       O        0.64570    0.44823    0.81250    1.000
    C1       C        0.77980    0.56603    0.42850    1.000
    C2       C        0.80690    0.59870    0.54420    1.000
    H1       H        0.82160    0.64790    0.55090    1.000
    C3       C        0.81270    0.56040    0.64900    1.000
    H2       H        0.83160    0.58320    0.72740    1.000
    C4       C        0.79080    0.48784    0.64020    1.000
    C5       C        0.76710    0.45500    0.52580    1.000
    H3       H        0.75480    0.40580    0.51960    1.000
    C6       C        0.76110    0.49380    0.42000    1.000
    H4       H        0.74430    0.47090    0.34200    1.000
    U2       U        0.22773    0.00791    0.98384    1.000
    P3       P        0.23403    0.11555    0.70954    1.000
    P4       P        0.19895    0.93609    0.22512    1.000
    O7       O        0.11540    0.17596    0.67570    1.000
    O8       O        0.21050    0.06419    0.80350    1.000
    O9       O        0.41840    0.14463    0.76310    1.000
    O10      O        0.17410    0.86145    0.25460    1.000
    O11      O        0.05920    0.96688    0.10900    1.000
    O12      O        0.35430    0.94823    0.18750    1.000
    C7       C        0.22020    0.06603    0.57150    1.000
    C8       C        0.19310    0.09870    0.45580    1.000
    H5       H        0.17840    0.14790    0.44910    1.000
    C9       C        0.18730    0.06040    0.35100    1.000
    H6       H        0.16840    0.08320    0.27260    1.000
    C10      C        0.20920    0.98784    0.35980    1.000
    C11      C        0.23290    0.95500    0.47420    1.000
    H7       H        0.24520    0.90580    0.48040    1.000
    C12      C        0.23890    0.99380    0.58000    1.000
    H8       H        0.25570    0.97090    0.65800    1.000
    U3       U        0.22773    0.49209    0.98384    1.000
    P5       P        0.23403    0.38445    0.70954    1.000
    P6       P        0.19895    0.56391    0.22512    1.000
    O13      O        0.11540    0.32404    0.67570    1.000
    O14      O        0.21050    0.43581    0.80350    1.000
    O15      O        0.41840    0.35537    0.76310    1.000
    O16      O        0.17410    0.63855    0.25460    1.000
    O17      O        0.05920    0.53312    0.10900    1.000
    O18      O        0.35430    0.55177    0.18750    1.000
    C13      C        0.22020    0.43397    0.57150    1.000
    C14      C        0.19310    0.40130    0.45580    1.000
    H9       H        0.17840    0.35210    0.44910    1.000
    C15      C        0.18730    0.43960    0.35100    1.000
    H10      H        0.16840    0.41680    0.27260    1.000
    C16      C        0.20920    0.51216    0.35980    1.000
    C17      C        0.23290    0.54500    0.47420    1.000
    H11      H        0.24520    0.59420    0.48040    1.000
    C18      C        0.23890    0.50620    0.58000    1.000
    H12      H        0.25570    0.52910    0.65800    1.000
    U4       U        0.77227    0.99209    0.01616    1.000
    P7       P        0.76597    0.88445    0.29046    1.000
    P8       P        0.80105    0.06391    0.77488    1.000
    O19      O        0.88460    0.82404    0.32430    1.000
    O20      O        0.78950    0.93581    0.19650    1.000
    O21      O        0.58160    0.85537    0.23690    1.000
    O22      O        0.82590    0.13855    0.74540    1.000
    O23      O        0.94080    0.03312    0.89100    1.000
    O24      O        0.64570    0.05177    0.81250    1.000
    C19      C        0.77980    0.93397    0.42850    1.000
    C20      C        0.80690    0.90130    0.54420    1.000
    H13      H        0.82160    0.85210    0.55090    1.000
    C21      C        0.81270    0.93960    0.64900    1.000
    H14      H        0.83160    0.91680    0.72740    1.000
    C22      C        0.79080    0.01216    0.64020    1.000
    C23      C        0.76710    0.04500    0.52580    1.000
    H15      H        0.75480    0.09420    0.51960    1.000
    C24      C        0.76110    0.00620    0.42000    1.000
    H16      H        0.74430    0.02910    0.34200    1.000
    U5       U        0.07705    0.75000    0.28024    1.000
    U6       U        0.92295    0.25000    0.71976    1.000
    F1       F        0.50000    0.50000    0.00000    1.000
    F2       F        0.50000    0.00000    0.00000    1.000
