# CIF file generated by openbabel 3.1.0, see https://openbabel.org
data_I
_chemical_name_common 'image0'
_cell_length_a 27.104
_cell_length_b 31.278
_cell_length_c 34.9
_cell_angle_alpha 90
_cell_angle_beta 92.1
_cell_angle_gamma 90
_space_group_name_H-M_alt 'P 1'
_space_group_name_Hall 'P 1'
loop_
    _symmetry_equiv_pos_as_xyz
    x,y,z
loop_
    _atom_site_label
    _atom_site_type_symbol
    _atom_site_fract_x
    _atom_site_fract_y
    _atom_site_fract_z
    _atom_site_occupancy
    Cu1      Cu       0.14314    0.25229    0.82340    1.000
    Si1      Si       0.89604    0.99091    0.57340    1.000
    C1       C        0.85520    0.02650    0.54180    1.000
    C2       C        0.80590    0.01640    0.53430    1.000
    H1       H        0.79190    0.99190    0.54570    1.000
    C3       C        0.77700    0.04220    0.51000    1.000
    H2       H        0.74330    0.03530    0.50480    1.000
    C4       C        0.79750    0.07800    0.49320    1.000
    C5       C        0.84680    0.08810    0.50070    1.000
    H3       H        0.86080    0.11260    0.48930    1.000
    C6       C        0.87570    0.06230    0.52500    1.000
    H4       H        0.90950    0.06920    0.53010    1.000
    C7       C        0.76740    0.10610    0.46920    1.000
    N1       N        0.67640    0.20810    0.36430    1.000
    C8       C        0.72560    0.20680    0.36580    1.000
    H5       H        0.74340    0.22410    0.34880    1.000
    C9       C        0.75170    0.18030    0.39200    1.000
    H6       H        0.78670    0.17820    0.39270    1.000
    C10      C        0.72250    0.15720    0.41710    1.000
    C11      C        0.67160    0.16000    0.41610    1.000
    H7       H        0.65240    0.14390    0.43320    1.000
    C12      C        0.64940    0.18760    0.38890    1.000
    H8       H        0.61470    0.19160    0.38820    1.000
    C13      C        0.74610    0.12920    0.44720    1.000
    C14      C        0.93510    0.02780    0.60490    1.000
    C15      C        0.98510    0.02090    0.61250    1.000
    H9       H        0.00120    0.99740    0.60100    1.000
    C16      C        0.01160    0.04820    0.63700    1.000
    H10      H        0.04580    0.04340    0.64220    1.000
    C17      C        0.98810    0.08250    0.65390    1.000
    C18      C        0.93800    0.08940    0.64630    1.000
    H11      H        0.92190    0.11280    0.65790    1.000
    C19      C        0.91150    0.06210    0.62180    1.000
    H12      H        0.87730    0.06680    0.61660    1.000
    C20      C        0.01580    0.11010    0.67980    1.000
    N2       N        0.11120    0.21420    0.78270    1.000
    C21      C        0.08320    0.23040    0.75400    1.000
    H13      H        0.08030    0.26060    0.75250    1.000
    C22      C        0.05830    0.20670    0.72630    1.000
    H14      H        0.03850    0.21970    0.70650    1.000
    C23      C        0.06380    0.16200    0.72900    1.000
    C24      C        0.09330    0.14350    0.75860    1.000
    H15      H        0.09790    0.11350    0.76050    1.000
    C25      C        0.11590    0.17220    0.78550    1.000
    H16      H        0.13520    0.16080    0.80630    1.000
    C26      C        0.03630    0.13350    0.70160    1.000
    C27      C        0.85930    0.95620    0.60540    1.000
    C28      C        0.84760    0.91450    0.59460    1.000
    H17      H        0.85890    0.90340    0.57110    1.000
    C29      C        0.81930    0.88920    0.61800    1.000
    H18      H        0.81130    0.86070    0.61060    1.000
    C30      C        0.80260    0.90550    0.65220    1.000
    C31      C        0.81430    0.94710    0.66310    1.000
    H19      H        0.80290    0.95830    0.68650    1.000
    C32      C        0.84260    0.97250    0.63970    1.000
    H20      H        0.85060    0.00100    0.64710    1.000
    C33      C        0.77280    0.88010    0.67800    1.000
    N3       N        0.67760    0.78600    0.78080    1.000
    C34      C        0.67320    0.82820    0.78110    1.000
    H21      H        0.65380    0.84170    0.79980    1.000
    C35      C        0.69710    0.85330    0.75360    1.000
    H22      H        0.69420    0.88350    0.75320    1.000
    C36      C        0.72530    0.83170    0.72710    1.000
    C37      C        0.72900    0.78690    0.72670    1.000
    H23      H        0.74790    0.77230    0.70830    1.000
    C38      C        0.70310    0.76460    0.75510    1.000
    H24      H        0.70400    0.73420    0.75590    1.000
    C39      C        0.75140    0.85760    0.69870    1.000
    C40      C        0.93420    0.95670    0.54170    1.000
    C41      C        0.92740    0.96070    0.50220    1.000
    H25      H        0.90500    0.98130    0.49170    1.000
    C42      C        0.95350    0.93440    0.47790    1.000
    H26      H        0.94880    0.93710    0.45090    1.000
    C43      C        0.98640    0.90430    0.49310    1.000
    C44      C        0.99320    0.90030    0.53270    1.000
    H27      H        0.01560    0.87970    0.54310    1.000
    C45      C        0.96710    0.92660    0.55690    1.000
    H28      H        0.97180    0.92390    0.58390    1.000
    C46      C        0.01110    0.87380    0.46900    1.000
    N4       N        0.10650    0.78090    0.36480    1.000
    C47      C        0.05870    0.78450    0.36120    1.000
    H29      H        0.04150    0.77150    0.34000    1.000
    C48      C        0.03210    0.80750    0.38840    1.000
    H30      H        0.99720    0.81040    0.38620    1.000
    C49      C        0.06010    0.82590    0.41910    1.000
    C50      C        0.11110    0.82190    0.42330    1.000
    C51      C        0.13390    0.79770    0.39430    1.000
    H31      H        0.16860    0.79320    0.39570    1.000
    C52      C        0.03350    0.85260    0.44760    1.000
    Cu2      Cu       0.64314    0.75229    0.82340    1.000
    Si2      Si       0.39604    0.49091    0.57340    1.000
    C53      C        0.35520    0.52650    0.54180    1.000
    C54      C        0.30590    0.51640    0.53430    1.000
    H32      H        0.29190    0.49190    0.54570    1.000
    C55      C        0.27700    0.54220    0.51000    1.000
    H33      H        0.24330    0.53530    0.50480    1.000
    C56      C        0.29750    0.57800    0.49320    1.000
    C57      C        0.34680    0.58810    0.50070    1.000
    H34      H        0.36080    0.61260    0.48930    1.000
    C58      C        0.37570    0.56230    0.52500    1.000
    H35      H        0.40950    0.56920    0.53010    1.000
    C59      C        0.26740    0.60610    0.46920    1.000
    N5       N        0.17640    0.70810    0.36430    1.000
    C60      C        0.22560    0.70680    0.36580    1.000
    H36      H        0.24340    0.72410    0.34880    1.000
    C61      C        0.25170    0.68030    0.39200    1.000
    H37      H        0.28670    0.67820    0.39270    1.000
    C62      C        0.22250    0.65720    0.41710    1.000
    C63      C        0.17160    0.66000    0.41610    1.000
    H38      H        0.15240    0.64390    0.43320    1.000
    C64      C        0.14940    0.68760    0.38890    1.000
    H39      H        0.11470    0.69160    0.38820    1.000
    C65      C        0.24610    0.62920    0.44720    1.000
    C66      C        0.43510    0.52780    0.60490    1.000
    C67      C        0.48510    0.52090    0.61250    1.000
    H40      H        0.50120    0.49740    0.60100    1.000
    C68      C        0.51160    0.54820    0.63700    1.000
    H41      H        0.54580    0.54340    0.64220    1.000
    C69      C        0.48810    0.58250    0.65390    1.000
    C70      C        0.43800    0.58940    0.64630    1.000
    H42      H        0.42190    0.61280    0.65790    1.000
    C71      C        0.41150    0.56210    0.62180    1.000
    H43      H        0.37730    0.56680    0.61660    1.000
    C72      C        0.51580    0.61010    0.67980    1.000
    N6       N        0.61120    0.71420    0.78270    1.000
    C73      C        0.58320    0.73040    0.75400    1.000
    H44      H        0.58030    0.76060    0.75250    1.000
    C74      C        0.55830    0.70670    0.72630    1.000
    H45      H        0.53850    0.71970    0.70650    1.000
    C75      C        0.56380    0.66200    0.72900    1.000
    C76      C        0.59330    0.64350    0.75860    1.000
    H46      H        0.59790    0.61350    0.76050    1.000
    C77      C        0.61590    0.67220    0.78550    1.000
    H47      H        0.63520    0.66080    0.80630    1.000
    C78      C        0.53630    0.63350    0.70160    1.000
    C79      C        0.35930    0.45620    0.60540    1.000
    C80      C        0.34760    0.41450    0.59460    1.000
    H48      H        0.35890    0.40340    0.57110    1.000
    C81      C        0.31930    0.38920    0.61800    1.000
    H49      H        0.31130    0.36070    0.61060    1.000
    C82      C        0.30260    0.40550    0.65220    1.000
    C83      C        0.31430    0.44710    0.66310    1.000
    H50      H        0.30290    0.45830    0.68650    1.000
    C84      C        0.34260    0.47250    0.63970    1.000
    H51      H        0.35060    0.50100    0.64710    1.000
    C85      C        0.27280    0.38010    0.67800    1.000
    N7       N        0.17760    0.28600    0.78080    1.000
    C86      C        0.17320    0.32820    0.78110    1.000
    H52      H        0.15380    0.34170    0.79980    1.000
    C87      C        0.19710    0.35330    0.75360    1.000
    H53      H        0.19420    0.38350    0.75320    1.000
    C88      C        0.22530    0.33170    0.72710    1.000
    C89      C        0.22900    0.28690    0.72670    1.000
    H54      H        0.24790    0.27230    0.70830    1.000
    C90      C        0.20310    0.26460    0.75510    1.000
    H55      H        0.20400    0.23420    0.75590    1.000
    C91      C        0.25140    0.35760    0.69870    1.000
    C92      C        0.43420    0.45670    0.54170    1.000
    C93      C        0.42740    0.46070    0.50220    1.000
    H56      H        0.40500    0.48130    0.49170    1.000
    C94      C        0.45350    0.43440    0.47790    1.000
    H57      H        0.44880    0.43710    0.45090    1.000
    C95      C        0.48640    0.40430    0.49310    1.000
    C96      C        0.49320    0.40030    0.53270    1.000
    H58      H        0.51560    0.37970    0.54310    1.000
    C97      C        0.46710    0.42660    0.55690    1.000
    H59      H        0.47180    0.42390    0.58390    1.000
    C98      C        0.51110    0.37380    0.46900    1.000
    N8       N        0.60650    0.28090    0.36480    1.000
    C99      C        0.55870    0.28450    0.36120    1.000
    H60      H        0.54150    0.27150    0.34000    1.000
    C100     C        0.53210    0.30750    0.38840    1.000
    H61      H        0.49720    0.31040    0.38620    1.000
    C101     C        0.56010    0.32590    0.41910    1.000
    C102     C        0.61110    0.32190    0.42330    1.000
    C103     C        0.63390    0.29770    0.39430    1.000
    H62      H        0.66860    0.29320    0.39570    1.000
    C104     C        0.53350    0.35260    0.44760    1.000
    Cu3      Cu       0.14314    0.74771    0.32340    1.000
    Si3      Si       0.89604    0.00909    0.07340    1.000
    C105     C        0.85520    0.97350    0.04180    1.000
    C106     C        0.80590    0.98360    0.03430    1.000
    H63      H        0.79190    0.00810    0.04570    1.000
    C107     C        0.77700    0.95780    0.01000    1.000
    H64      H        0.74330    0.96470    0.00480    1.000
    C108     C        0.79750    0.92200    0.99320    1.000
    C109     C        0.84680    0.91190    0.00070    1.000
    H65      H        0.86080    0.88740    0.98930    1.000
    C110     C        0.87570    0.93770    0.02500    1.000
    H66      H        0.90950    0.93080    0.03010    1.000
    C111     C        0.76740    0.89390    0.96920    1.000
    N9       N        0.67640    0.79190    0.86430    1.000
    C112     C        0.72560    0.79320    0.86580    1.000
    H67      H        0.74340    0.77590    0.84880    1.000
    C113     C        0.75170    0.81970    0.89200    1.000
    H68      H        0.78670    0.82180    0.89270    1.000
    C114     C        0.72250    0.84280    0.91710    1.000
    C115     C        0.67160    0.84000    0.91610    1.000
    H69      H        0.65240    0.85610    0.93320    1.000
    C116     C        0.64940    0.81240    0.88890    1.000
    H70      H        0.61470    0.80840    0.88820    1.000
    C117     C        0.74610    0.87080    0.94720    1.000
    C118     C        0.93510    0.97220    0.10490    1.000
    C119     C        0.98510    0.97910    0.11250    1.000
    H71      H        0.00120    0.00260    0.10100    1.000
    C120     C        0.01160    0.95180    0.13700    1.000
    H72      H        0.04580    0.95660    0.14220    1.000
    C121     C        0.98810    0.91750    0.15390    1.000
    C122     C        0.93800    0.91060    0.14630    1.000
    H73      H        0.92190    0.88720    0.15790    1.000
    C123     C        0.91150    0.93790    0.12180    1.000
    H74      H        0.87730    0.93320    0.11660    1.000
    C124     C        0.01580    0.88990    0.17980    1.000
    N10      N        0.11120    0.78580    0.28270    1.000
    C125     C        0.08320    0.76960    0.25400    1.000
    H75      H        0.08030    0.73940    0.25250    1.000
    C126     C        0.05830    0.79330    0.22630    1.000
    H76      H        0.03850    0.78030    0.20650    1.000
    C127     C        0.06380    0.83800    0.22900    1.000
    C128     C        0.09330    0.85650    0.25860    1.000
    H77      H        0.09790    0.88650    0.26050    1.000
    C129     C        0.11590    0.82780    0.28550    1.000
    H78      H        0.13520    0.83920    0.30630    1.000
    C130     C        0.03630    0.86650    0.20160    1.000
    C131     C        0.85930    0.04380    0.10540    1.000
    C132     C        0.84760    0.08550    0.09460    1.000
    H79      H        0.85890    0.09660    0.07110    1.000
    C133     C        0.81930    0.11080    0.11800    1.000
    H80      H        0.81130    0.13930    0.11060    1.000
    C134     C        0.80260    0.09450    0.15220    1.000
    C135     C        0.81430    0.05290    0.16310    1.000
    H81      H        0.80290    0.04170    0.18650    1.000
    C136     C        0.84260    0.02750    0.13970    1.000
    H82      H        0.85060    0.99900    0.14710    1.000
    C137     C        0.77280    0.11990    0.17800    1.000
    N11      N        0.67760    0.21400    0.28080    1.000
    C138     C        0.67320    0.17180    0.28110    1.000
    H83      H        0.65380    0.15830    0.29980    1.000
    C139     C        0.69710    0.14670    0.25360    1.000
    H84      H        0.69420    0.11650    0.25320    1.000
    C140     C        0.72530    0.16830    0.22710    1.000
    C141     C        0.72900    0.21310    0.22670    1.000
    H85      H        0.74790    0.22770    0.20830    1.000
    C142     C        0.70310    0.23540    0.25510    1.000
    H86      H        0.70400    0.26580    0.25590    1.000
    C143     C        0.75140    0.14240    0.19870    1.000
    C144     C        0.93420    0.04330    0.04170    1.000
    C145     C        0.92740    0.03930    0.00220    1.000
    H87      H        0.90500    0.01870    0.99170    1.000
    C146     C        0.95350    0.06560    0.97790    1.000
    H88      H        0.94880    0.06290    0.95090    1.000
    C147     C        0.98640    0.09570    0.99310    1.000
    C148     C        0.99320    0.09970    0.03270    1.000
    H89      H        0.01560    0.12030    0.04310    1.000
    C149     C        0.96710    0.07340    0.05690    1.000
    H90      H        0.97180    0.07610    0.08390    1.000
    C150     C        0.01110    0.12620    0.96900    1.000
    N12      N        0.10650    0.21910    0.86480    1.000
    C151     C        0.05870    0.21550    0.86120    1.000
    H91      H        0.04150    0.22850    0.84000    1.000
    C152     C        0.03210    0.19250    0.88840    1.000
    H92      H        0.99720    0.18960    0.88620    1.000
    C153     C        0.06010    0.17410    0.91910    1.000
    C154     C        0.11110    0.17810    0.92330    1.000
    C155     C        0.13390    0.20230    0.89430    1.000
    H93      H        0.16860    0.20680    0.89570    1.000
    C156     C        0.03350    0.14740    0.94760    1.000
    Cu4      Cu       0.64314    0.24771    0.32340    1.000
    Si4      Si       0.39604    0.50909    0.07340    1.000
    C157     C        0.35520    0.47350    0.04180    1.000
    C158     C        0.30590    0.48360    0.03430    1.000
    H94      H        0.29190    0.50810    0.04570    1.000
    C159     C        0.27700    0.45780    0.01000    1.000
    H95      H        0.24330    0.46470    0.00480    1.000
    C160     C        0.29750    0.42200    0.99320    1.000
    C161     C        0.34680    0.41190    0.00070    1.000
    H96      H        0.36080    0.38740    0.98930    1.000
    C162     C        0.37570    0.43770    0.02500    1.000
    H97      H        0.40950    0.43080    0.03010    1.000
    C163     C        0.26740    0.39390    0.96920    1.000
    N13      N        0.17640    0.29190    0.86430    1.000
    C164     C        0.22560    0.29320    0.86580    1.000
    H98      H        0.24340    0.27590    0.84880    1.000
    C165     C        0.25170    0.31970    0.89200    1.000
    H99      H        0.28670    0.32180    0.89270    1.000
    C166     C        0.22250    0.34280    0.91710    1.000
    C167     C        0.17160    0.34000    0.91610    1.000
    H100     H        0.15240    0.35610    0.93320    1.000
    C168     C        0.14940    0.31240    0.88890    1.000
    H101     H        0.11470    0.30840    0.88820    1.000
    C169     C        0.24610    0.37080    0.94720    1.000
    C170     C        0.43510    0.47220    0.10490    1.000
    C171     C        0.48510    0.47910    0.11250    1.000
    H102     H        0.50120    0.50260    0.10100    1.000
    C172     C        0.51160    0.45180    0.13700    1.000
    H103     H        0.54580    0.45660    0.14220    1.000
    C173     C        0.48810    0.41750    0.15390    1.000
    C174     C        0.43800    0.41060    0.14630    1.000
    H104     H        0.42190    0.38720    0.15790    1.000
    C175     C        0.41150    0.43790    0.12180    1.000
    H105     H        0.37730    0.43320    0.11660    1.000
    C176     C        0.51580    0.38990    0.17980    1.000
    N14      N        0.61120    0.28580    0.28270    1.000
    C177     C        0.58320    0.26960    0.25400    1.000
    H106     H        0.58030    0.23940    0.25250    1.000
    C178     C        0.55830    0.29330    0.22630    1.000
    H107     H        0.53850    0.28030    0.20650    1.000
    C179     C        0.56380    0.33800    0.22900    1.000
    C180     C        0.59330    0.35650    0.25860    1.000
    H108     H        0.59790    0.38650    0.26050    1.000
    C181     C        0.61590    0.32780    0.28550    1.000
    H109     H        0.63520    0.33920    0.30630    1.000
    C182     C        0.53630    0.36650    0.20160    1.000
    C183     C        0.35930    0.54380    0.10540    1.000
    C184     C        0.34760    0.58550    0.09460    1.000
    H110     H        0.35890    0.59660    0.07110    1.000
    C185     C        0.31930    0.61080    0.11800    1.000
    H111     H        0.31130    0.63930    0.11060    1.000
    C186     C        0.30260    0.59450    0.15220    1.000
    C187     C        0.31430    0.55290    0.16310    1.000
    H112     H        0.30290    0.54170    0.18650    1.000
    C188     C        0.34260    0.52750    0.13970    1.000
    H113     H        0.35060    0.49900    0.14710    1.000
    C189     C        0.27280    0.61990    0.17800    1.000
    N15      N        0.17760    0.71400    0.28080    1.000
    C190     C        0.17320    0.67180    0.28110    1.000
    H114     H        0.15380    0.65830    0.29980    1.000
    C191     C        0.19710    0.64670    0.25360    1.000
    H115     H        0.19420    0.61650    0.25320    1.000
    C192     C        0.22530    0.66830    0.22710    1.000
    C193     C        0.22900    0.71310    0.22670    1.000
    H116     H        0.24790    0.72770    0.20830    1.000
    C194     C        0.20310    0.73540    0.25510    1.000
    H117     H        0.20400    0.76580    0.25590    1.000
    C195     C        0.25140    0.64240    0.19870    1.000
    C196     C        0.43420    0.54330    0.04170    1.000
    C197     C        0.42740    0.53930    0.00220    1.000
    H118     H        0.40500    0.51870    0.99170    1.000
    C198     C        0.45350    0.56560    0.97790    1.000
    H119     H        0.44880    0.56290    0.95090    1.000
    C199     C        0.48640    0.59570    0.99310    1.000
    C200     C        0.49320    0.59970    0.03270    1.000
    H120     H        0.51560    0.62030    0.04310    1.000
    C201     C        0.46710    0.57340    0.05690    1.000
    H121     H        0.47180    0.57610    0.08390    1.000
    C202     C        0.51110    0.62620    0.96900    1.000
    N16      N        0.60650    0.71910    0.86480    1.000
    C203     C        0.55870    0.71550    0.86120    1.000
    H122     H        0.54150    0.72850    0.84000    1.000
    C204     C        0.53210    0.69250    0.88840    1.000
    H123     H        0.49720    0.68960    0.88620    1.000
    C205     C        0.56010    0.67410    0.91910    1.000
    C206     C        0.61110    0.67810    0.92330    1.000
    C207     C        0.63390    0.70230    0.89430    1.000
    H124     H        0.66860    0.70680    0.89570    1.000
    C208     C        0.53350    0.64740    0.94760    1.000
    Cu5      Cu       0.85686    0.25229    0.67660    1.000
    Si5      Si       0.10396    0.99091    0.92660    1.000
    C209     C        0.14480    0.02650    0.95820    1.000
    C210     C        0.19410    0.01640    0.96570    1.000
    H125     H        0.20810    0.99190    0.95430    1.000
    C211     C        0.22300    0.04220    0.99000    1.000
    H126     H        0.25670    0.03530    0.99520    1.000
    C212     C        0.20250    0.07800    0.00680    1.000
    C213     C        0.15320    0.08810    0.99930    1.000
    H127     H        0.13920    0.11260    0.01070    1.000
    C214     C        0.12430    0.06230    0.97500    1.000
    H128     H        0.09050    0.06920    0.96990    1.000
    C215     C        0.23260    0.10610    0.03080    1.000
    N17      N        0.32360    0.20810    0.13570    1.000
    C216     C        0.27440    0.20680    0.13420    1.000
    H129     H        0.25660    0.22410    0.15120    1.000
    C217     C        0.24830    0.18030    0.10800    1.000
    H130     H        0.21330    0.17820    0.10730    1.000
    C218     C        0.27750    0.15720    0.08290    1.000
    C219     C        0.32840    0.16000    0.08390    1.000
    H131     H        0.34760    0.14390    0.06680    1.000
    C220     C        0.35060    0.18760    0.11110    1.000
    H132     H        0.38530    0.19160    0.11180    1.000
    C221     C        0.25390    0.12920    0.05280    1.000
    C222     C        0.06490    0.02780    0.89510    1.000
    C223     C        0.01490    0.02090    0.88750    1.000
    H133     H        0.99880    0.99740    0.89900    1.000
    C224     C        0.98840    0.04820    0.86300    1.000
    H134     H        0.95420    0.04340    0.85780    1.000
    C225     C        0.01190    0.08250    0.84610    1.000
    C226     C        0.06200    0.08940    0.85370    1.000
    H135     H        0.07810    0.11280    0.84210    1.000
    C227     C        0.08850    0.06210    0.87820    1.000
    H136     H        0.12270    0.06680    0.88340    1.000
    C228     C        0.98420    0.11010    0.82020    1.000
    N18      N        0.88880    0.21420    0.71730    1.000
    C229     C        0.91680    0.23040    0.74600    1.000
    H137     H        0.91970    0.26060    0.74750    1.000
    C230     C        0.94170    0.20670    0.77370    1.000
    H138     H        0.96150    0.21970    0.79350    1.000
    C231     C        0.93620    0.16200    0.77100    1.000
    C232     C        0.90670    0.14350    0.74140    1.000
    H139     H        0.90210    0.11350    0.73950    1.000
    C233     C        0.88410    0.17220    0.71450    1.000
    H140     H        0.86480    0.16080    0.69370    1.000
    C234     C        0.96370    0.13350    0.79840    1.000
    C235     C        0.14070    0.95620    0.89460    1.000
    C236     C        0.15240    0.91450    0.90540    1.000
    H141     H        0.14110    0.90340    0.92890    1.000
    C237     C        0.18070    0.88920    0.88200    1.000
    H142     H        0.18870    0.86070    0.88940    1.000
    C238     C        0.19740    0.90550    0.84780    1.000
    C239     C        0.18570    0.94710    0.83690    1.000
    H143     H        0.19710    0.95830    0.81350    1.000
    C240     C        0.15740    0.97250    0.86030    1.000
    H144     H        0.14940    0.00100    0.85290    1.000
    C241     C        0.22720    0.88010    0.82200    1.000
    N19      N        0.32240    0.78600    0.71920    1.000
    C242     C        0.32680    0.82820    0.71890    1.000
    H145     H        0.34620    0.84170    0.70020    1.000
    C243     C        0.30290    0.85330    0.74640    1.000
    H146     H        0.30580    0.88350    0.74680    1.000
    C244     C        0.27470    0.83170    0.77290    1.000
    C245     C        0.27100    0.78690    0.77330    1.000
    H147     H        0.25210    0.77230    0.79170    1.000
    C246     C        0.29690    0.76460    0.74490    1.000
    H148     H        0.29600    0.73420    0.74410    1.000
    C247     C        0.24860    0.85760    0.80130    1.000
    C248     C        0.06580    0.95670    0.95830    1.000
    C249     C        0.07260    0.96070    0.99780    1.000
    H149     H        0.09500    0.98130    0.00830    1.000
    C250     C        0.04650    0.93440    0.02210    1.000
    H150     H        0.05120    0.93710    0.04910    1.000
    C251     C        0.01360    0.90430    0.00690    1.000
    C252     C        0.00680    0.90030    0.96730    1.000
    H151     H        0.98440    0.87970    0.95690    1.000
    C253     C        0.03290    0.92660    0.94310    1.000
    H152     H        0.02820    0.92390    0.91610    1.000
    C254     C        0.98890    0.87380    0.03100    1.000
    N20      N        0.89350    0.78090    0.13520    1.000
    C255     C        0.94130    0.78450    0.13880    1.000
    H153     H        0.95850    0.77150    0.16000    1.000
    C256     C        0.96790    0.80750    0.11160    1.000
    H154     H        0.00280    0.81040    0.11380    1.000
    C257     C        0.93990    0.82590    0.08090    1.000
    C258     C        0.88890    0.82190    0.07670    1.000
    C259     C        0.86610    0.79770    0.10570    1.000
    H155     H        0.83140    0.79320    0.10430    1.000
    C260     C        0.96650    0.85260    0.05240    1.000
    Cu6      Cu       0.35686    0.75229    0.67660    1.000
    Si6      Si       0.60396    0.49091    0.92660    1.000
    C261     C        0.64480    0.52650    0.95820    1.000
    C262     C        0.69410    0.51640    0.96570    1.000
    H156     H        0.70810    0.49190    0.95430    1.000
    C263     C        0.72300    0.54220    0.99000    1.000
    H157     H        0.75670    0.53530    0.99520    1.000
    C264     C        0.70250    0.57800    0.00680    1.000
    C265     C        0.65320    0.58810    0.99930    1.000
    H158     H        0.63920    0.61260    0.01070    1.000
    C266     C        0.62430    0.56230    0.97500    1.000
    H159     H        0.59050    0.56920    0.96990    1.000
    C267     C        0.73260    0.60610    0.03080    1.000
    N21      N        0.82360    0.70810    0.13570    1.000
    C268     C        0.77440    0.70680    0.13420    1.000
    H160     H        0.75660    0.72410    0.15120    1.000
    C269     C        0.74830    0.68030    0.10800    1.000
    H161     H        0.71330    0.67820    0.10730    1.000
    C270     C        0.77750    0.65720    0.08290    1.000
    C271     C        0.82840    0.66000    0.08390    1.000
    H162     H        0.84760    0.64390    0.06680    1.000
    C272     C        0.85060    0.68760    0.11110    1.000
    H163     H        0.88530    0.69160    0.11180    1.000
    C273     C        0.75390    0.62920    0.05280    1.000
    C274     C        0.56490    0.52780    0.89510    1.000
    C275     C        0.51490    0.52090    0.88750    1.000
    H164     H        0.49880    0.49740    0.89900    1.000
    C276     C        0.48840    0.54820    0.86300    1.000
    H165     H        0.45420    0.54340    0.85780    1.000
    C277     C        0.51190    0.58250    0.84610    1.000
    C278     C        0.56200    0.58940    0.85370    1.000
    H166     H        0.57810    0.61280    0.84210    1.000
    C279     C        0.58850    0.56210    0.87820    1.000
    H167     H        0.62270    0.56680    0.88340    1.000
    C280     C        0.48420    0.61010    0.82020    1.000
    N22      N        0.38880    0.71420    0.71730    1.000
    C281     C        0.41680    0.73040    0.74600    1.000
    H168     H        0.41970    0.76060    0.74750    1.000
    C282     C        0.44170    0.70670    0.77370    1.000
    H169     H        0.46150    0.71970    0.79350    1.000
    C283     C        0.43620    0.66200    0.77100    1.000
    C284     C        0.40670    0.64350    0.74140    1.000
    H170     H        0.40210    0.61350    0.73950    1.000
    C285     C        0.38410    0.67220    0.71450    1.000
    H171     H        0.36480    0.66080    0.69370    1.000
    C286     C        0.46370    0.63350    0.79840    1.000
    C287     C        0.64070    0.45620    0.89460    1.000
    C288     C        0.65240    0.41450    0.90540    1.000
    H172     H        0.64110    0.40340    0.92890    1.000
    C289     C        0.68070    0.38920    0.88200    1.000
    H173     H        0.68870    0.36070    0.88940    1.000
    C290     C        0.69740    0.40550    0.84780    1.000
    C291     C        0.68570    0.44710    0.83690    1.000
    H174     H        0.69710    0.45830    0.81350    1.000
    C292     C        0.65740    0.47250    0.86030    1.000
    H175     H        0.64940    0.50100    0.85290    1.000
    C293     C        0.72720    0.38010    0.82200    1.000
    N23      N        0.82240    0.28600    0.71920    1.000
    C294     C        0.82680    0.32820    0.71890    1.000
    H176     H        0.84620    0.34170    0.70020    1.000
    C295     C        0.80290    0.35330    0.74640    1.000
    H177     H        0.80580    0.38350    0.74680    1.000
    C296     C        0.77470    0.33170    0.77290    1.000
    C297     C        0.77100    0.28690    0.77330    1.000
    H178     H        0.75210    0.27230    0.79170    1.000
    C298     C        0.79690    0.26460    0.74490    1.000
    H179     H        0.79600    0.23420    0.74410    1.000
    C299     C        0.74860    0.35760    0.80130    1.000
    C300     C        0.56580    0.45670    0.95830    1.000
    C301     C        0.57260    0.46070    0.99780    1.000
    H180     H        0.59500    0.48130    0.00830    1.000
    C302     C        0.54650    0.43440    0.02210    1.000
    H181     H        0.55120    0.43710    0.04910    1.000
    C303     C        0.51360    0.40430    0.00690    1.000
    C304     C        0.50680    0.40030    0.96730    1.000
    H182     H        0.48440    0.37970    0.95690    1.000
    C305     C        0.53290    0.42660    0.94310    1.000
    H183     H        0.52820    0.42390    0.91610    1.000
    C306     C        0.48890    0.37380    0.03100    1.000
    N24      N        0.39350    0.28090    0.13520    1.000
    C307     C        0.44130    0.28450    0.13880    1.000
    H184     H        0.45850    0.27150    0.16000    1.000
    C308     C        0.46790    0.30750    0.11160    1.000
    H185     H        0.50280    0.31040    0.11380    1.000
    C309     C        0.43990    0.32590    0.08090    1.000
    C310     C        0.38890    0.32190    0.07670    1.000
    C311     C        0.36610    0.29770    0.10570    1.000
    H186     H        0.33140    0.29320    0.10430    1.000
    C312     C        0.46650    0.35260    0.05240    1.000
    Cu7      Cu       0.85686    0.74771    0.17660    1.000
    Si7      Si       0.10396    0.00909    0.42660    1.000
    C313     C        0.14480    0.97350    0.45820    1.000
    C314     C        0.19410    0.98360    0.46570    1.000
    H187     H        0.20810    0.00810    0.45430    1.000
    C315     C        0.22300    0.95780    0.49000    1.000
    H188     H        0.25670    0.96470    0.49520    1.000
    C316     C        0.20250    0.92200    0.50680    1.000
    C317     C        0.15320    0.91190    0.49930    1.000
    H189     H        0.13920    0.88740    0.51070    1.000
    C318     C        0.12430    0.93770    0.47500    1.000
    H190     H        0.09050    0.93080    0.46990    1.000
    C319     C        0.23260    0.89390    0.53080    1.000
    N25      N        0.32360    0.79190    0.63570    1.000
    C320     C        0.27440    0.79320    0.63420    1.000
    H191     H        0.25660    0.77590    0.65120    1.000
    C321     C        0.24830    0.81970    0.60800    1.000
    H192     H        0.21330    0.82180    0.60730    1.000
    C322     C        0.27750    0.84280    0.58290    1.000
    C323     C        0.32840    0.84000    0.58390    1.000
    H193     H        0.34760    0.85610    0.56680    1.000
    C324     C        0.35060    0.81240    0.61110    1.000
    H194     H        0.38530    0.80840    0.61180    1.000
    C325     C        0.25390    0.87080    0.55280    1.000
    C326     C        0.06490    0.97220    0.39510    1.000
    C327     C        0.01490    0.97910    0.38750    1.000
    H195     H        0.99880    0.00260    0.39900    1.000
    C328     C        0.98840    0.95180    0.36300    1.000
    H196     H        0.95420    0.95660    0.35780    1.000
    C329     C        0.01190    0.91750    0.34610    1.000
    C330     C        0.06200    0.91060    0.35370    1.000
    H197     H        0.07810    0.88720    0.34210    1.000
    C331     C        0.08850    0.93790    0.37820    1.000
    H198     H        0.12270    0.93320    0.38340    1.000
    C332     C        0.98420    0.88990    0.32020    1.000
    N26      N        0.88880    0.78580    0.21730    1.000
    C333     C        0.91680    0.76960    0.24600    1.000
    H199     H        0.91970    0.73940    0.24750    1.000
    C334     C        0.94170    0.79330    0.27370    1.000
    H200     H        0.96150    0.78030    0.29350    1.000
    C335     C        0.93620    0.83800    0.27100    1.000
    C336     C        0.90670    0.85650    0.24140    1.000
    H201     H        0.90210    0.88650    0.23950    1.000
    C337     C        0.88410    0.82780    0.21450    1.000
    H202     H        0.86480    0.83920    0.19370    1.000
    C338     C        0.96370    0.86650    0.29840    1.000
    C339     C        0.14070    0.04380    0.39460    1.000
    C340     C        0.15240    0.08550    0.40540    1.000
    H203     H        0.14110    0.09660    0.42890    1.000
    C341     C        0.18070    0.11080    0.38200    1.000
    H204     H        0.18870    0.13930    0.38940    1.000
    C342     C        0.19740    0.09450    0.34780    1.000
    C343     C        0.18570    0.05290    0.33690    1.000
    H205     H        0.19710    0.04170    0.31350    1.000
    C344     C        0.15740    0.02750    0.36030    1.000
    H206     H        0.14940    0.99900    0.35290    1.000
    C345     C        0.22720    0.11990    0.32200    1.000
    N27      N        0.32240    0.21400    0.21920    1.000
    C346     C        0.32680    0.17180    0.21890    1.000
    H207     H        0.34620    0.15830    0.20020    1.000
    C347     C        0.30290    0.14670    0.24640    1.000
    H208     H        0.30580    0.11650    0.24680    1.000
    C348     C        0.27470    0.16830    0.27290    1.000
    C349     C        0.27100    0.21310    0.27330    1.000
    H209     H        0.25210    0.22770    0.29170    1.000
    C350     C        0.29690    0.23540    0.24490    1.000
    H210     H        0.29600    0.26580    0.24410    1.000
    C351     C        0.24860    0.14240    0.30130    1.000
    C352     C        0.06580    0.04330    0.45830    1.000
    C353     C        0.07260    0.03930    0.49780    1.000
    H211     H        0.09500    0.01870    0.50830    1.000
    C354     C        0.04650    0.06560    0.52210    1.000
    H212     H        0.05120    0.06290    0.54910    1.000
    C355     C        0.01360    0.09570    0.50690    1.000
    C356     C        0.00680    0.09970    0.46730    1.000
    H213     H        0.98440    0.12030    0.45690    1.000
    C357     C        0.03290    0.07340    0.44310    1.000
    H214     H        0.02820    0.07610    0.41610    1.000
    C358     C        0.98890    0.12620    0.53100    1.000
    N28      N        0.89350    0.21910    0.63520    1.000
    C359     C        0.94130    0.21550    0.63880    1.000
    H215     H        0.95850    0.22850    0.66000    1.000
    C360     C        0.96790    0.19250    0.61160    1.000
    H216     H        0.00280    0.18960    0.61380    1.000
    C361     C        0.93990    0.17410    0.58090    1.000
    C362     C        0.88890    0.17810    0.57670    1.000
    C363     C        0.86610    0.20230    0.60570    1.000
    H217     H        0.83140    0.20680    0.60430    1.000
    C364     C        0.96650    0.14740    0.55240    1.000
    Cu8      Cu       0.35686    0.24771    0.17660    1.000
    Si8      Si       0.60396    0.50909    0.42660    1.000
    C365     C        0.64480    0.47350    0.45820    1.000
    C366     C        0.69410    0.48360    0.46570    1.000
    H218     H        0.70810    0.50810    0.45430    1.000
    C367     C        0.72300    0.45780    0.49000    1.000
    H219     H        0.75670    0.46470    0.49520    1.000
    C368     C        0.70250    0.42200    0.50680    1.000
    C369     C        0.65320    0.41190    0.49930    1.000
    H220     H        0.63920    0.38740    0.51070    1.000
    C370     C        0.62430    0.43770    0.47500    1.000
    H221     H        0.59050    0.43080    0.46990    1.000
    C371     C        0.73260    0.39390    0.53080    1.000
    N29      N        0.82360    0.29190    0.63570    1.000
    C372     C        0.77440    0.29320    0.63420    1.000
    H222     H        0.75660    0.27590    0.65120    1.000
    C373     C        0.74830    0.31970    0.60800    1.000
    H223     H        0.71330    0.32180    0.60730    1.000
    C374     C        0.77750    0.34280    0.58290    1.000
    C375     C        0.82840    0.34000    0.58390    1.000
    H224     H        0.84760    0.35610    0.56680    1.000
    C376     C        0.85060    0.31240    0.61110    1.000
    H225     H        0.88530    0.30840    0.61180    1.000
    C377     C        0.75390    0.37080    0.55280    1.000
    C378     C        0.56490    0.47220    0.39510    1.000
    C379     C        0.51490    0.47910    0.38750    1.000
    H226     H        0.49880    0.50260    0.39900    1.000
    C380     C        0.48840    0.45180    0.36300    1.000
    H227     H        0.45420    0.45660    0.35780    1.000
    C381     C        0.51190    0.41750    0.34610    1.000
    C382     C        0.56200    0.41060    0.35370    1.000
    H228     H        0.57810    0.38720    0.34210    1.000
    C383     C        0.58850    0.43790    0.37820    1.000
    H229     H        0.62270    0.43320    0.38340    1.000
    C384     C        0.48420    0.38990    0.32020    1.000
    N30      N        0.38880    0.28580    0.21730    1.000
    C385     C        0.41680    0.26960    0.24600    1.000
    H230     H        0.41970    0.23940    0.24750    1.000
    C386     C        0.44170    0.29330    0.27370    1.000
    H231     H        0.46150    0.28030    0.29350    1.000
    C387     C        0.43620    0.33800    0.27100    1.000
    C388     C        0.40670    0.35650    0.24140    1.000
    H232     H        0.40210    0.38650    0.23950    1.000
    C389     C        0.38410    0.32780    0.21450    1.000
    H233     H        0.36480    0.33920    0.19370    1.000
    C390     C        0.46370    0.36650    0.29840    1.000
    C391     C        0.64070    0.54380    0.39460    1.000
    C392     C        0.65240    0.58550    0.40540    1.000
    H234     H        0.64110    0.59660    0.42890    1.000
    C393     C        0.68070    0.61080    0.38200    1.000
    H235     H        0.68870    0.63930    0.38940    1.000
    C394     C        0.69740    0.59450    0.34780    1.000
    C395     C        0.68570    0.55290    0.33690    1.000
    H236     H        0.69710    0.54170    0.31350    1.000
    C396     C        0.65740    0.52750    0.36030    1.000
    H237     H        0.64940    0.49900    0.35290    1.000
    C397     C        0.72720    0.61990    0.32200    1.000
    N31      N        0.82240    0.71400    0.21920    1.000
    C398     C        0.82680    0.67180    0.21890    1.000
    H238     H        0.84620    0.65830    0.20020    1.000
    C399     C        0.80290    0.64670    0.24640    1.000
    H239     H        0.80580    0.61650    0.24680    1.000
    C400     C        0.77470    0.66830    0.27290    1.000
    C401     C        0.77100    0.71310    0.27330    1.000
    H240     H        0.75210    0.72770    0.29170    1.000
    C402     C        0.79690    0.73540    0.24490    1.000
    H241     H        0.79600    0.76580    0.24410    1.000
    C403     C        0.74860    0.64240    0.30130    1.000
    C404     C        0.56580    0.54330    0.45830    1.000
    C405     C        0.57260    0.53930    0.49780    1.000
    H242     H        0.59500    0.51870    0.50830    1.000
    C406     C        0.54650    0.56560    0.52210    1.000
    H243     H        0.55120    0.56290    0.54910    1.000
    C407     C        0.51360    0.59570    0.50690    1.000
    C408     C        0.50680    0.59970    0.46730    1.000
    H244     H        0.48440    0.62030    0.45690    1.000
    C409     C        0.53290    0.57340    0.44310    1.000
    H245     H        0.52820    0.57610    0.41610    1.000
    C410     C        0.48890    0.62620    0.53100    1.000
    N32      N        0.39350    0.71910    0.63520    1.000
    C411     C        0.44130    0.71550    0.63880    1.000
    H246     H        0.45850    0.72850    0.66000    1.000
    C412     C        0.46790    0.69250    0.61160    1.000
    H247     H        0.50280    0.68960    0.61380    1.000
    C413     C        0.43990    0.67410    0.58090    1.000
    C414     C        0.38890    0.67810    0.57670    1.000
    C415     C        0.36610    0.70230    0.60570    1.000
    H248     H        0.33140    0.70680    0.60430    1.000
    C416     C        0.46650    0.64740    0.55240    1.000
