# CIF file generated by openbabel 3.1.0, see https://openbabel.org
data_I
_chemical_name_common 'image0'
_cell_length_a 10.3428
_cell_length_b 10.5749
_cell_length_c 6.2597
_cell_angle_alpha 90
_cell_angle_beta 114.852
_cell_angle_gamma 90
_space_group_name_H-M_alt 'P 1'
_space_group_name_Hall 'P 1'
loop_
    _symmetry_equiv_pos_as_xyz
    x,y,z
loop_
    _atom_site_label
    _atom_site_type_symbol
    _atom_site_fract_x
    _atom_site_fract_y
    _atom_site_fract_z
    _atom_site_occupancy
    C1       C        0.31710    0.21070    0.54590    1.000
    H1       H        0.39890    0.26560    0.57340    1.000
    H2       H        0.33080    0.17290    0.69690    1.000
    N1       N        0.31150    0.10980    0.38070    1.000
    H3       H        0.29630    0.14510    0.23960    1.000
    H4       H        0.23640    0.05820    0.35780    1.000
    C2       C        0.81710    0.71070    0.54590    1.000
    H5       H        0.89890    0.76560    0.57340    1.000
    H6       H        0.83080    0.67290    0.69690    1.000
    N2       N        0.81150    0.60980    0.38070    1.000
    H7       H        0.79630    0.64510    0.23960    1.000
    H8       H        0.73640    0.55820    0.35780    1.000
    C3       C        0.68290    0.21070    0.95410    1.000
    H9       H        0.60110    0.26560    0.92660    1.000
    H10      H        0.66920    0.17290    0.80310    1.000
    N3       N        0.68850    0.10980    0.11930    1.000
    H11      H        0.70370    0.14510    0.26040    1.000
    H12      H        0.76360    0.05820    0.14220    1.000
    C4       C        0.18290    0.71070    0.95410    1.000
    H13      H        0.10110    0.76560    0.92660    1.000
    H14      H        0.16920    0.67290    0.80310    1.000
    N4       N        0.18850    0.60980    0.11930    1.000
    H15      H        0.20370    0.64510    0.26040    1.000
    H16      H        0.26360    0.55820    0.14220    1.000
    C5       C        0.68290    0.78930    0.45410    1.000
    H17      H        0.60110    0.73440    0.42660    1.000
    H18      H        0.66920    0.82710    0.30310    1.000
    N5       N        0.68850    0.89020    0.61930    1.000
    H19      H        0.70370    0.85490    0.76040    1.000
    H20      H        0.76360    0.94180    0.64220    1.000
    C6       C        0.18290    0.28930    0.45410    1.000
    H21      H        0.10110    0.23440    0.42660    1.000
    H22      H        0.16920    0.32710    0.30310    1.000
    N6       N        0.18850    0.39020    0.61930    1.000
    H23      H        0.20370    0.35490    0.76040    1.000
    H24      H        0.26360    0.44180    0.64220    1.000
    C7       C        0.31710    0.78930    0.04590    1.000
    H25      H        0.39890    0.73440    0.07340    1.000
    H26      H        0.33080    0.82710    0.19690    1.000
    N7       N        0.31150    0.89020    0.88070    1.000
    H27      H        0.29630    0.85490    0.73960    1.000
    H28      H        0.23640    0.94180    0.85780    1.000
    C8       C        0.81710    0.28930    0.04590    1.000
    H29      H        0.89890    0.23440    0.07340    1.000
    H30      H        0.83080    0.32710    0.19690    1.000
    N8       N        0.81150    0.39020    0.88070    1.000
    H31      H        0.79630    0.35490    0.73960    1.000
    H32      H        0.73640    0.44180    0.85780    1.000
    Ag1      Ag       0.50000    0.00000    0.50000    1.000
    Ag2      Ag       0.00000    0.50000    0.50000    1.000
    Ag3      Ag       0.50000    0.00000    0.00000    1.000
    Ag4      Ag       0.00000    0.50000    0.00000    1.000
