# CIF file generated by openbabel 3.1.0, see https://openbabel.org
data_I
_chemical_name_common 'image0'
_cell_length_a 29.929
_cell_length_b 15.4982
_cell_length_c 9.6833
_cell_angle_alpha 90
_cell_angle_beta 90
_cell_angle_gamma 90
_space_group_name_H-M_alt 'P 1'
_space_group_name_Hall 'P 1'
loop_
    _symmetry_equiv_pos_as_xyz
    x,y,z
loop_
    _atom_site_label
    _atom_site_type_symbol
    _atom_site_fract_x
    _atom_site_fract_y
    _atom_site_fract_z
    _atom_site_occupancy
    N1       N        0.68730    0.18350    0.85460    1.000
    N2       N        0.77542    0.25270    0.14190    1.000
    C1       C        0.67720    0.23840    0.73510    1.000
    C2       C        0.66710    0.10650    0.84150    1.000
    H1       H        0.69330    0.28930    0.72490    1.000
    C3       C        0.64560    0.21950    0.63770    1.000
    C4       C        0.63510    0.08830    0.75300    1.000
    H2       H        0.67640    0.06250    0.89990    1.000
    C5       C        0.61990    0.14230    0.66160    1.000
    H3       H        0.64100    0.25430    0.56080    1.000
    H4       H        0.62260    0.03340    0.75600    1.000
    C6       C        0.58330    0.12500    0.56690    1.000
    S1       S        0.53108    0.10103    0.65198    1.000
    S2       S        0.42317    0.11959    0.65219    1.000
    C7       C        0.37500    0.16290    0.56860    1.000
    C8       C        0.33940    0.19000    0.66290    1.000
    C9       C        0.29590    0.17160    0.65080    1.000
    C10      C        0.35000    0.24820    0.78110    1.000
    H5       H        0.28680    0.14040    0.57390    1.000
    C11      C        0.26300    0.19660    0.74770    1.000
    C12      C        0.31870    0.27490    0.86650    1.000
    H6       H        0.37930    0.26600    0.79480    1.000
    H7       H        0.23340    0.17920    0.73700    1.000
    H8       H        0.32630    0.31400    0.93530    1.000
    C13      C        0.64300    0.21460    0.11620    1.000
    H9       H        0.63710    0.24480    0.03530    1.000
    C14      C        0.61030    0.19900    0.20850    1.000
    H10      H        0.58200    0.22210    0.19480    1.000
    C15      C        0.66050    0.10900    0.33500    1.000
    H11      H        0.66760    0.06750    0.40080    1.000
    C16      C        0.69350    0.13170    0.23960    1.000
    H12      H        0.72150    0.10640    0.24780    1.000
    C17      C        0.31630    0.26680    0.34980    1.000
    H13      H        0.32170    0.30130    0.42650    1.000
    C18      C        0.28840    0.29160    0.26280    1.000
    H14      H        0.27480    0.34460    0.27910    1.000
    C19      C        0.29770    0.16870    0.13740    1.000
    H15      H        0.28900    0.13240    0.06590    1.000
    C20      C        0.32900    0.13740    0.21740    1.000
    H16      H        0.34340    0.08560    0.19900    1.000
    N3       N        0.31270    0.81650    0.85460    1.000
    N4       N        0.22458    0.74730    0.14190    1.000
    C21      C        0.32280    0.76160    0.73510    1.000
    C22      C        0.33290    0.89350    0.84150    1.000
    H17      H        0.30670    0.71070    0.72490    1.000
    C23      C        0.35440    0.78050    0.63770    1.000
    C24      C        0.36490    0.91170    0.75300    1.000
    H18      H        0.32360    0.93750    0.89990    1.000
    C25      C        0.38010    0.85770    0.66160    1.000
    H19      H        0.35900    0.74570    0.56080    1.000
    H20      H        0.37740    0.96660    0.75600    1.000
    C26      C        0.41670    0.87500    0.56690    1.000
    S3       S        0.46892    0.89897    0.65198    1.000
    S4       S        0.57683    0.88041    0.65219    1.000
    C27      C        0.62500    0.83710    0.56860    1.000
    C28      C        0.66060    0.81000    0.66290    1.000
    C29      C        0.70410    0.82840    0.65080    1.000
    C30      C        0.65000    0.75180    0.78110    1.000
    H21      H        0.71320    0.85960    0.57390    1.000
    C31      C        0.73700    0.80340    0.74770    1.000
    C32      C        0.68130    0.72510    0.86650    1.000
    H22      H        0.62070    0.73400    0.79480    1.000
    H23      H        0.76660    0.82080    0.73700    1.000
    H24      H        0.67370    0.68600    0.93530    1.000
    C33      C        0.35700    0.78540    0.11620    1.000
    H25      H        0.36290    0.75520    0.03530    1.000
    C34      C        0.38970    0.80100    0.20850    1.000
    H26      H        0.41800    0.77790    0.19480    1.000
    C35      C        0.33950    0.89100    0.33500    1.000
    H27      H        0.33240    0.93250    0.40080    1.000
    C36      C        0.30650    0.86830    0.23960    1.000
    H28      H        0.27850    0.89360    0.24780    1.000
    C37      C        0.68370    0.73320    0.34980    1.000
    H29      H        0.67830    0.69870    0.42650    1.000
    C38      C        0.71160    0.70840    0.26280    1.000
    H30      H        0.72520    0.65540    0.27910    1.000
    C39      C        0.70230    0.83130    0.13740    1.000
    H31      H        0.71100    0.86760    0.06590    1.000
    C40      C        0.67100    0.86260    0.21740    1.000
    H32      H        0.65660    0.91440    0.19900    1.000
    N5       N        0.81270    0.68350    0.14540    1.000
    N6       N        0.72458    0.75270    0.85810    1.000
    C41      C        0.82280    0.73840    0.26490    1.000
    C42      C        0.83290    0.60650    0.15850    1.000
    H33      H        0.80670    0.78930    0.27510    1.000
    C43      C        0.85440    0.71950    0.36230    1.000
    C44      C        0.86490    0.58830    0.24700    1.000
    H34      H        0.82360    0.56250    0.10010    1.000
    C45      C        0.88010    0.64230    0.33840    1.000
    H35      H        0.85900    0.75430    0.43920    1.000
    H36      H        0.87740    0.53340    0.24400    1.000
    C46      C        0.91670    0.62500    0.43310    1.000
    S5       S        0.96892    0.60103    0.34802    1.000
    S6       S        0.07683    0.61959    0.34781    1.000
    C47      C        0.12500    0.66290    0.43140    1.000
    C48      C        0.16060    0.69000    0.33710    1.000
    C49      C        0.20410    0.67160    0.34920    1.000
    C50      C        0.15000    0.74820    0.21890    1.000
    H37      H        0.21320    0.64040    0.42610    1.000
    C51      C        0.23700    0.69660    0.25230    1.000
    C52      C        0.18130    0.77490    0.13350    1.000
    H38      H        0.12070    0.76600    0.20520    1.000
    H39      H        0.26660    0.67920    0.26300    1.000
    H40      H        0.17370    0.81400    0.06470    1.000
    C53      C        0.85700    0.71460    0.88380    1.000
    H41      H        0.86290    0.74480    0.96470    1.000
    C54      C        0.88970    0.69900    0.79150    1.000
    H42      H        0.91800    0.72210    0.80520    1.000
    C55      C        0.83950    0.60900    0.66500    1.000
    H43      H        0.83240    0.56750    0.59920    1.000
    C56      C        0.80650    0.63170    0.76040    1.000
    H44      H        0.77850    0.60640    0.75220    1.000
    C57      C        0.18370    0.76680    0.65020    1.000
    H45      H        0.17830    0.80130    0.57350    1.000
    C58      C        0.21160    0.79160    0.73720    1.000
    H46      H        0.22520    0.84460    0.72090    1.000
    C59      C        0.20230    0.66870    0.86260    1.000
    H47      H        0.21100    0.63240    0.93410    1.000
    C60      C        0.17100    0.63740    0.78260    1.000
    H48      H        0.15660    0.58560    0.80100    1.000
    N7       N        0.18730    0.31650    0.14540    1.000
    N8       N        0.27542    0.24730    0.85810    1.000
    C61      C        0.17720    0.26160    0.26490    1.000
    C62      C        0.16710    0.39350    0.15850    1.000
    H49      H        0.19330    0.21070    0.27510    1.000
    C63      C        0.14560    0.28050    0.36230    1.000
    C64      C        0.13510    0.41170    0.24700    1.000
    H50      H        0.17640    0.43750    0.10010    1.000
    C65      C        0.11990    0.35770    0.33840    1.000
    H51      H        0.14100    0.24570    0.43920    1.000
    H52      H        0.12260    0.46660    0.24400    1.000
    C66      C        0.08330    0.37500    0.43310    1.000
    S7       S        0.03108    0.39897    0.34802    1.000
    S8       S        0.92317    0.38041    0.34781    1.000
    C67      C        0.87500    0.33710    0.43140    1.000
    C68      C        0.83940    0.31000    0.33710    1.000
    C69      C        0.79590    0.32840    0.34920    1.000
    C70      C        0.85000    0.25180    0.21890    1.000
    H53      H        0.78680    0.35960    0.42610    1.000
    C71      C        0.76300    0.30340    0.25230    1.000
    C72      C        0.81870    0.22510    0.13350    1.000
    H54      H        0.87930    0.23400    0.20520    1.000
    H55      H        0.73340    0.32080    0.26300    1.000
    H56      H        0.82630    0.18600    0.06470    1.000
    C73      C        0.14300    0.28540    0.88380    1.000
    H57      H        0.13710    0.25520    0.96470    1.000
    C74      C        0.11030    0.30100    0.79150    1.000
    H58      H        0.08200    0.27790    0.80520    1.000
    C75      C        0.16050    0.39100    0.66500    1.000
    H59      H        0.16760    0.43250    0.59920    1.000
    C76      C        0.19350    0.36830    0.76040    1.000
    H60      H        0.22150    0.39360    0.75220    1.000
    C77      C        0.81630    0.23320    0.65020    1.000
    H61      H        0.82170    0.19870    0.57350    1.000
    C78      C        0.78840    0.20840    0.73720    1.000
    H62      H        0.77480    0.15540    0.72090    1.000
    C79      C        0.79770    0.33130    0.86260    1.000
    H63      H        0.78900    0.36760    0.93410    1.000
    C80      C        0.82900    0.36260    0.78260    1.000
    H64      H        0.84340    0.41440    0.80100    1.000
    N9       N        0.31270    0.81650    0.14540    1.000
    N10      N        0.22458    0.74730    0.85810    1.000
    C81      C        0.32280    0.76160    0.26490    1.000
    C82      C        0.33290    0.89350    0.15850    1.000
    H65      H        0.30670    0.71070    0.27510    1.000
    C83      C        0.35440    0.78050    0.36230    1.000
    C84      C        0.36490    0.91170    0.24700    1.000
    H66      H        0.32360    0.93750    0.10010    1.000
    C85      C        0.38010    0.85770    0.33840    1.000
    H67      H        0.35900    0.74570    0.43920    1.000
    H68      H        0.37740    0.96660    0.24400    1.000
    C86      C        0.41670    0.87500    0.43310    1.000
    S9       S        0.46892    0.89897    0.34802    1.000
    S10      S        0.57683    0.88041    0.34781    1.000
    C87      C        0.62500    0.83710    0.43140    1.000
    C88      C        0.66060    0.81000    0.33710    1.000
    C89      C        0.70410    0.82840    0.34920    1.000
    C90      C        0.65000    0.75180    0.21890    1.000
    H69      H        0.71320    0.85960    0.42610    1.000
    C91      C        0.73700    0.80340    0.25230    1.000
    C92      C        0.68130    0.72510    0.13350    1.000
    H70      H        0.62070    0.73400    0.20520    1.000
    H71      H        0.76660    0.82080    0.26300    1.000
    H72      H        0.67370    0.68600    0.06470    1.000
    C93      C        0.35700    0.78540    0.88380    1.000
    H73      H        0.36290    0.75520    0.96470    1.000
    C94      C        0.38970    0.80100    0.79150    1.000
    H74      H        0.41800    0.77790    0.80520    1.000
    C95      C        0.33950    0.89100    0.66500    1.000
    H75      H        0.33240    0.93250    0.59920    1.000
    C96      C        0.30650    0.86830    0.76040    1.000
    H76      H        0.27850    0.89360    0.75220    1.000
    C97      C        0.68370    0.73320    0.65020    1.000
    H77      H        0.67830    0.69870    0.57350    1.000
    C98      C        0.71160    0.70840    0.73720    1.000
    H78      H        0.72520    0.65540    0.72090    1.000
    C99      C        0.70230    0.83130    0.86260    1.000
    H79      H        0.71100    0.86760    0.93410    1.000
    C100     C        0.67100    0.86260    0.78260    1.000
    H80      H        0.65660    0.91440    0.80100    1.000
    N11      N        0.68730    0.18350    0.14540    1.000
    N12      N        0.77542    0.25270    0.85810    1.000
    C101     C        0.67720    0.23840    0.26490    1.000
    C102     C        0.66710    0.10650    0.15850    1.000
    H81      H        0.69330    0.28930    0.27510    1.000
    C103     C        0.64560    0.21950    0.36230    1.000
    C104     C        0.63510    0.08830    0.24700    1.000
    H82      H        0.67640    0.06250    0.10010    1.000
    C105     C        0.61990    0.14230    0.33840    1.000
    H83      H        0.64100    0.25430    0.43920    1.000
    H84      H        0.62260    0.03340    0.24400    1.000
    C106     C        0.58330    0.12500    0.43310    1.000
    S11      S        0.53108    0.10103    0.34802    1.000
    S12      S        0.42317    0.11959    0.34781    1.000
    C107     C        0.37500    0.16290    0.43140    1.000
    C108     C        0.33940    0.19000    0.33710    1.000
    C109     C        0.29590    0.17160    0.34920    1.000
    C110     C        0.35000    0.24820    0.21890    1.000
    H85      H        0.28680    0.14040    0.42610    1.000
    C111     C        0.26300    0.19660    0.25230    1.000
    C112     C        0.31870    0.27490    0.13350    1.000
    H86      H        0.37930    0.26600    0.20520    1.000
    H87      H        0.23340    0.17920    0.26300    1.000
    H88      H        0.32630    0.31400    0.06470    1.000
    C113     C        0.64300    0.21460    0.88380    1.000
    H89      H        0.63710    0.24480    0.96470    1.000
    C114     C        0.61030    0.19900    0.79150    1.000
    H90      H        0.58200    0.22210    0.80520    1.000
    C115     C        0.66050    0.10900    0.66500    1.000
    H91      H        0.66760    0.06750    0.59920    1.000
    C116     C        0.69350    0.13170    0.76040    1.000
    H92      H        0.72150    0.10640    0.75220    1.000
    C117     C        0.31630    0.26680    0.65020    1.000
    H93      H        0.32170    0.30130    0.57350    1.000
    C118     C        0.28840    0.29160    0.73720    1.000
    H94      H        0.27480    0.34460    0.72090    1.000
    C119     C        0.29770    0.16870    0.86260    1.000
    H95      H        0.28900    0.13240    0.93410    1.000
    C120     C        0.32900    0.13740    0.78260    1.000
    H96      H        0.34340    0.08560    0.80100    1.000
    N13      N        0.18730    0.31650    0.85460    1.000
    N14      N        0.27542    0.24730    0.14190    1.000
    C121     C        0.17720    0.26160    0.73510    1.000
    C122     C        0.16710    0.39350    0.84150    1.000
    H97      H        0.19330    0.21070    0.72490    1.000
    C123     C        0.14560    0.28050    0.63770    1.000
    C124     C        0.13510    0.41170    0.75300    1.000
    H98      H        0.17640    0.43750    0.89990    1.000
    C125     C        0.11990    0.35770    0.66160    1.000
    H99      H        0.14100    0.24570    0.56080    1.000
    H100     H        0.12260    0.46660    0.75600    1.000
    C126     C        0.08330    0.37500    0.56690    1.000
    S13      S        0.03108    0.39897    0.65198    1.000
    S14      S        0.92317    0.38041    0.65219    1.000
    C127     C        0.87500    0.33710    0.56860    1.000
    C128     C        0.83940    0.31000    0.66290    1.000
    C129     C        0.79590    0.32840    0.65080    1.000
    C130     C        0.85000    0.25180    0.78110    1.000
    H101     H        0.78680    0.35960    0.57390    1.000
    C131     C        0.76300    0.30340    0.74770    1.000
    C132     C        0.81870    0.22510    0.86650    1.000
    H102     H        0.87930    0.23400    0.79480    1.000
    H103     H        0.73340    0.32080    0.73700    1.000
    H104     H        0.82630    0.18600    0.93530    1.000
    C133     C        0.14300    0.28540    0.11620    1.000
    H105     H        0.13710    0.25520    0.03530    1.000
    C134     C        0.11030    0.30100    0.20850    1.000
    H106     H        0.08200    0.27790    0.19480    1.000
    C135     C        0.16050    0.39100    0.33500    1.000
    H107     H        0.16760    0.43250    0.40080    1.000
    C136     C        0.19350    0.36830    0.23960    1.000
    H108     H        0.22150    0.39360    0.24780    1.000
    C137     C        0.81630    0.23320    0.34980    1.000
    H109     H        0.82170    0.19870    0.42650    1.000
    C138     C        0.78840    0.20840    0.26280    1.000
    H110     H        0.77480    0.15540    0.27910    1.000
    C139     C        0.79770    0.33130    0.13740    1.000
    H111     H        0.78900    0.36760    0.06590    1.000
    C140     C        0.82900    0.36260    0.21740    1.000
    H112     H        0.84340    0.41440    0.19900    1.000
    N15      N        0.81270    0.68350    0.85460    1.000
    N16      N        0.72458    0.75270    0.14190    1.000
    C141     C        0.82280    0.73840    0.73510    1.000
    C142     C        0.83290    0.60650    0.84150    1.000
    H113     H        0.80670    0.78930    0.72490    1.000
    C143     C        0.85440    0.71950    0.63770    1.000
    C144     C        0.86490    0.58830    0.75300    1.000
    H114     H        0.82360    0.56250    0.89990    1.000
    C145     C        0.88010    0.64230    0.66160    1.000
    H115     H        0.85900    0.75430    0.56080    1.000
    H116     H        0.87740    0.53340    0.75600    1.000
    C146     C        0.91670    0.62500    0.56690    1.000
    S15      S        0.96892    0.60103    0.65198    1.000
    S16      S        0.07683    0.61959    0.65219    1.000
    C147     C        0.12500    0.66290    0.56860    1.000
    C148     C        0.16060    0.69000    0.66290    1.000
    C149     C        0.20410    0.67160    0.65080    1.000
    C150     C        0.15000    0.74820    0.78110    1.000
    H117     H        0.21320    0.64040    0.57390    1.000
    C151     C        0.23700    0.69660    0.74770    1.000
    C152     C        0.18130    0.77490    0.86650    1.000
    H118     H        0.12070    0.76600    0.79480    1.000
    H119     H        0.26660    0.67920    0.73700    1.000
    H120     H        0.17370    0.81400    0.93530    1.000
    C153     C        0.85700    0.71460    0.11620    1.000
    H121     H        0.86290    0.74480    0.03530    1.000
    C154     C        0.88970    0.69900    0.20850    1.000
    H122     H        0.91800    0.72210    0.19480    1.000
    C155     C        0.83950    0.60900    0.33500    1.000
    H123     H        0.83240    0.56750    0.40080    1.000
    C156     C        0.80650    0.63170    0.23960    1.000
    H124     H        0.77850    0.60640    0.24780    1.000
    C157     C        0.18370    0.76680    0.34980    1.000
    H125     H        0.17830    0.80130    0.42650    1.000
    C158     C        0.21160    0.79160    0.26280    1.000
    H126     H        0.22520    0.84460    0.27910    1.000
    C159     C        0.20230    0.66870    0.13740    1.000
    H127     H        0.21100    0.63240    0.06590    1.000
    C160     C        0.17100    0.63740    0.21740    1.000
    H128     H        0.15660    0.58560    0.19900    1.000
    Fe1      Fe       0.73149    0.21713    0.00000    1.000
    N17      N        0.75780    0.10360    0.00000    1.000
    N18      N        0.70790    0.33340    0.00000    1.000
    C161     C        0.78100    0.04550    0.00000    1.000
    N19      N        0.81280    0.98400    0.00000    1.000
    C162     C        0.79940    0.90490    0.00000    1.000
    Fe2      Fe       0.26851    0.78287    0.00000    1.000
    N20      N        0.24220    0.89640    0.00000    1.000
    N21      N        0.29210    0.66660    0.00000    1.000
    C163     C        0.21900    0.95450    0.00000    1.000
    N22      N        0.18720    0.01600    0.00000    1.000
    C164     C        0.20060    0.09510    0.00000    1.000
    Fe3      Fe       0.76851    0.71713    0.00000    1.000
    N23      N        0.74220    0.60360    0.00000    1.000
    N24      N        0.79210    0.83340    0.00000    1.000
    C165     C        0.71900    0.54550    0.00000    1.000
    N25      N        0.68720    0.48400    0.00000    1.000
    C166     C        0.70060    0.40490    0.00000    1.000
    Fe4      Fe       0.23149    0.28287    0.00000    1.000
    N26      N        0.25780    0.39640    0.00000    1.000
    N27      N        0.20790    0.16660    0.00000    1.000
    C167     C        0.28100    0.45450    0.00000    1.000
    N28      N        0.31280    0.51600    0.00000    1.000
    C168     C        0.29940    0.59510    0.00000    1.000
    C169     C        0.50060    0.10600    0.50000    1.000
    C170     C        0.45430    0.11240    0.50000    1.000
    C171     C        0.49940    0.89400    0.50000    1.000
    C172     C        0.54570    0.88760    0.50000    1.000
    C173     C        0.99940    0.60600    0.50000    1.000
    C174     C        0.04570    0.61240    0.50000    1.000
    C175     C        0.00060    0.39400    0.50000    1.000
    C176     C        0.95430    0.38760    0.50000    1.000
