# CIF file generated by openbabel 3.1.0, see https://openbabel.org
data_I
_chemical_name_common 'NIKDEQ_clean'
_cell_length_a 10.4562
_cell_length_b 10.4562
_cell_length_c 14.264
_cell_angle_alpha 83.3213
_cell_angle_beta 83.3213
_cell_angle_gamma 85.3259
_space_group_name_H-M_alt 'P 1'
_space_group_name_Hall 'P 1'
loop_
    _symmetry_equiv_pos_as_xyz
    x,y,z
loop_
    _atom_site_label
    _atom_site_type_symbol
    _atom_site_fract_x
    _atom_site_fract_y
    _atom_site_fract_z
    _atom_site_occupancy
    Gd1      Gd       0.22880    0.77120    0.25000    1.000
    Gd2      Gd       0.77120    0.22880    0.75000    1.000
    H1       H        0.29020    0.16800    0.45960    1.000
    H2       H        0.80410    0.73770    0.40870    1.000
    H3       H        0.64640    0.68280    0.41160    1.000
    H4       H        0.56100    0.88300    0.35310    1.000
    H5       H        0.71540    0.86900    0.28780    1.000
    H6       H        0.68990    0.18950    0.33360    1.000
    H7       H        0.65320    0.08140    0.25690    1.000
    H8       H        0.46460    0.21060    0.30030    1.000
    H9       H        0.44460    0.04960    0.35400    1.000
    H10      H        0.51960    0.27320    0.44530    1.000
    H11      H        0.50320    0.11460    0.49930    1.000
    H12      H        0.69030    0.67110    0.66100    1.000
    H13      H        0.68210    0.57650    0.56910    1.000
    H14      H        0.90500    0.63240    0.50710    1.000
    H15      H        0.91000    0.70840    0.61080    1.000
    H16      H        0.88230    0.91430    0.41350    1.000
    H17      H        0.87600    0.03140    0.31320    1.000
    H18      H        0.96770    0.11690    0.43440    1.000
    H19      H        0.81860    0.20080    0.41720    1.000
    H20      H        0.83200    0.70980    0.04040    1.000
    H21      H        0.26230    0.19590    0.09130    1.000
    H22      H        0.31720    0.35360    0.08840    1.000
    H23      H        0.11700    0.43900    0.14690    1.000
    H24      H        0.13100    0.28460    0.21220    1.000
    H25      H        0.81050    0.31010    0.16640    1.000
    H26      H        0.91860    0.34680    0.24310    1.000
    H27      H        0.78940    0.53540    0.19970    1.000
    H28      H        0.95040    0.55540    0.14600    1.000
    H29      H        0.72680    0.48040    0.05470    1.000
    H30      H        0.88540    0.49680    0.00070    1.000
    H31      H        0.32890    0.30970    0.83900    1.000
    H32      H        0.42350    0.31790    0.93090    1.000
    H33      H        0.36760    0.09500    0.99290    1.000
    H34      H        0.29160    0.09000    0.88920    1.000
    H35      H        0.08570    0.11770    0.08650    1.000
    H36      H        0.96860    0.12400    0.18680    1.000
    H37      H        0.88310    0.03230    0.06560    1.000
    H38      H        0.79920    0.18140    0.08280    1.000
    H39      H        0.70980    0.83200    0.54040    1.000
    H40      H        0.19590    0.26230    0.59130    1.000
    H41      H        0.35360    0.31720    0.58840    1.000
    H42      H        0.43900    0.11700    0.64690    1.000
    H43      H        0.28460    0.13100    0.71220    1.000
    H44      H        0.31010    0.81050    0.66640    1.000
    H45      H        0.34680    0.91860    0.74310    1.000
    H46      H        0.53540    0.78940    0.69970    1.000
    H47      H        0.55540    0.95040    0.64600    1.000
    H48      H        0.48040    0.72680    0.55470    1.000
    H49      H        0.49680    0.88540    0.50070    1.000
    H50      H        0.30970    0.32890    0.33900    1.000
    H51      H        0.31790    0.42350    0.43090    1.000
    H52      H        0.09500    0.36760    0.49290    1.000
    H53      H        0.09000    0.29160    0.38920    1.000
    H54      H        0.11770    0.08570    0.58650    1.000
    H55      H        0.12400    0.96860    0.68680    1.000
    H56      H        0.03230    0.88310    0.56560    1.000
    H57      H        0.18140    0.79920    0.58280    1.000
    H58      H        0.16800    0.29020    0.95960    1.000
    H59      H        0.73770    0.80410    0.90870    1.000
    H60      H        0.68280    0.64640    0.91160    1.000
    H61      H        0.88300    0.56100    0.85310    1.000
    H62      H        0.86900    0.71540    0.78780    1.000
    H63      H        0.18950    0.68990    0.83360    1.000
    H64      H        0.08140    0.65320    0.75690    1.000
    H65      H        0.21060    0.46460    0.80030    1.000
    H66      H        0.04960    0.44460    0.85400    1.000
    H67      H        0.27320    0.51960    0.94530    1.000
    H68      H        0.11460    0.50320    0.99930    1.000
    H69      H        0.67110    0.69030    0.16100    1.000
    H70      H        0.57650    0.68210    0.06910    1.000
    H71      H        0.63240    0.90500    0.00710    1.000
    H72      H        0.70840    0.91000    0.11080    1.000
    H73      H        0.91430    0.88230    0.91350    1.000
    H74      H        0.03140    0.87600    0.81320    1.000
    H75      H        0.11690    0.96770    0.93440    1.000
    H76      H        0.20080    0.81860    0.91720    1.000
    C1       C        0.29700    0.24100    0.57420    1.000
    C2       C        0.33600    0.12400    0.64280    1.000
    C3       C        0.35960    0.89360    0.67110    1.000
    C4       C        0.50200    0.86400    0.64780    1.000
    C5       C        0.53210    0.81070    0.55400    1.000
    C6       C        0.28000    0.34200    0.41190    1.000
    C7       C        0.13600    0.36400    0.42100    1.000
    C8       C        0.10000    0.49200    0.36500    1.000
    C9       C        0.83740    0.00540    0.38660    1.000
    C10      C        0.86300    0.10900    0.44600    1.000
    C11      C        0.82160    0.08360    0.55300    1.000
    C12      C        0.75900    0.70300    0.92580    1.000
    C13      C        0.87600    0.66400    0.85720    1.000
    C14      C        0.10640    0.64040    0.82890    1.000
    C15      C        0.13600    0.49800    0.85220    1.000
    C16      C        0.18930    0.46790    0.94600    1.000
    C17      C        0.65800    0.72000    0.08810    1.000
    C18      C        0.63600    0.86400    0.07900    1.000
    C19      C        0.50800    0.90000    0.13500    1.000
    C20      C        0.99460    0.16260    0.11340    1.000
    C21      C        0.89100    0.13700    0.05400    1.000
    C22      C        0.91640    0.17840    0.94700    1.000
    C23      C        0.70300    0.75900    0.42580    1.000
    C24      C        0.66400    0.87600    0.35720    1.000
    C25      C        0.64040    0.10640    0.32890    1.000
    C26      C        0.49800    0.13600    0.35220    1.000
    C27      C        0.46790    0.18930    0.44600    1.000
    C28      C        0.72000    0.65800    0.58810    1.000
    C29      C        0.86400    0.63600    0.57900    1.000
    C30      C        0.90000    0.50800    0.63500    1.000
    C31      C        0.16260    0.99460    0.61340    1.000
    C32      C        0.13700    0.89100    0.55400    1.000
    C33      C        0.17840    0.91640    0.44700    1.000
    C34      C        0.24100    0.29700    0.07420    1.000
    C35      C        0.12400    0.33600    0.14280    1.000
    C36      C        0.89360    0.35960    0.17110    1.000
    C37      C        0.86400    0.50200    0.14780    1.000
    C38      C        0.81070    0.53210    0.05400    1.000
    C39      C        0.34200    0.28000    0.91190    1.000
    C40      C        0.36400    0.13600    0.92100    1.000
    C41      C        0.49200    0.10000    0.86500    1.000
    C42      C        0.00540    0.83740    0.88660    1.000
    C43      C        0.10900    0.86300    0.94600    1.000
    C44      C        0.08360    0.82160    0.05300    1.000
    N1       N        0.32700    0.22140    0.47280    1.000
    N2       N        0.30420    0.00280    0.61060    1.000
    N3       N        0.77860    0.67300    0.02720    1.000
    N4       N        0.99720    0.69580    0.88940    1.000
    N5       N        0.67300    0.77860    0.52720    1.000
    N6       N        0.69580    0.99720    0.38940    1.000
    N7       N        0.22140    0.32700    0.97280    1.000
    N8       N        0.00280    0.30420    0.11060    1.000
    O1       O        0.02080    0.47700    0.63640    1.000
    O2       O        0.18680    0.55680    0.32150    1.000
    O3       O        0.80170    0.97170    0.58710    1.000
    O4       O        0.86200    0.15800    0.60000    1.000
    O5       O        0.52300    0.97920    0.86360    1.000
    O6       O        0.44320    0.81320    0.17850    1.000
    O7       O        0.02830    0.19830    0.91290    1.000
    O8       O        0.84200    0.13800    0.90000    1.000
    O9       O        0.97920    0.52300    0.36360    1.000
    O10      O        0.81320    0.44320    0.67850    1.000
    O11      O        0.19830    0.02830    0.41290    1.000
    O12      O        0.13800    0.84200    0.40000    1.000
    O13      O        0.47700    0.02080    0.13640    1.000
    O14      O        0.55680    0.18680    0.82150    1.000
    O15      O        0.97170    0.80170    0.08710    1.000
    O16      O        0.15800    0.86200    0.10000    1.000
