# CIF file generated by openbabel 3.1.0, see https://openbabel.org
data_I
_chemical_name_common 'image0'
_cell_length_a 9.4056
_cell_length_b 22.3152
_cell_length_c 10.082
_cell_angle_alpha 90
_cell_angle_beta 102.96
_cell_angle_gamma 90
_space_group_name_H-M_alt 'P 1'
_space_group_name_Hall 'P 1'
loop_
    _symmetry_equiv_pos_as_xyz
    x,y,z
loop_
    _atom_site_label
    _atom_site_type_symbol
    _atom_site_fract_x
    _atom_site_fract_y
    _atom_site_fract_z
    _atom_site_occupancy
    Er1      Er       0.24787    0.27613    0.05256    1.000
    Er2      Er       0.71757    0.43395    0.86311    1.000
    N1       N        0.59980    0.41516    0.62970    1.000
    N2       N        0.53290    0.41262    0.40720    1.000
    H1       H        0.51867    0.42217    0.32273    1.000
    N3       N        0.77660    0.50850    0.65050    1.000
    O1       O        0.06640    0.33652    0.11430    1.000
    O2       O        0.02940    0.28574    0.87080    1.000
    O3       O        0.82730    0.34105    0.79840    1.000
    O4       O        0.84990    0.38093    0.05220    1.000
    O5       O        0.52330    0.36042    0.82680    1.000
    O6       O        0.60190    0.43630    0.05390    1.000
    O7       O        0.38010    0.29478    0.69770    1.000
    O8       O        0.27310    0.29258    0.39660    1.000
    O9       O        0.36460    0.33489    0.23360    1.000
    O10      O        0.46890    0.49216    0.16300    1.000
    O11      O        0.97430    0.44671    0.87080    1.000
    O12      O        0.18090    0.48236    0.00100    1.000
    C1       C        0.45370    0.36820    0.45340    1.000
    C2       C        0.49910    0.37050    0.59440    1.000
    C3       C        0.61870    0.44000    0.51610    1.000
    C4       C        0.72280    0.48920    0.52110    1.000
    C5       C        0.76510    0.51200    0.40770    1.000
    H2       H        0.72912    0.49606    0.32148    1.000
    C6       C        0.86360    0.55980    0.42770    1.000
    H3       H        0.89376    0.57735    0.35497    1.000
    C7       C        0.91490    0.58020    0.55960    1.000
    H4       H        0.97928    0.61238    0.57601    1.000
    C8       C        0.87170    0.55350    0.66490    1.000
    H5       H        0.91080    0.56747    0.75239    1.000
    C9       C        0.35580    0.32880    0.35470    1.000
    C10      C        0.46330    0.33850    0.71040    1.000
    C11      C        0.52060    0.47930    0.06340    1.000
    C12      C        0.04440    0.47960    0.96130    1.000
    C13      C        0.95180    0.34820    0.03110    1.000
    C14      C        0.93330    0.32290    0.88570    1.000
    Er3      Er       0.75213    0.77613    0.44744    1.000
    Er4      Er       0.28243    0.93395    0.63689    1.000
    N4       N        0.40020    0.91516    0.87030    1.000
    N5       N        0.46710    0.91262    0.09280    1.000
    H6       H        0.48133    0.92217    0.17727    1.000
    N6       N        0.22340    0.00850    0.84950    1.000
    O13      O        0.93360    0.83652    0.38570    1.000
    O14      O        0.97060    0.78574    0.62920    1.000
    O15      O        0.17270    0.84105    0.70160    1.000
    O16      O        0.15010    0.88093    0.44780    1.000
    O17      O        0.47670    0.86042    0.67320    1.000
    O18      O        0.39810    0.93630    0.44610    1.000
    O19      O        0.61990    0.79478    0.80230    1.000
    O20      O        0.72690    0.79258    0.10340    1.000
    O21      O        0.63540    0.83489    0.26640    1.000
    O22      O        0.53110    0.99216    0.33700    1.000
    O23      O        0.02570    0.94671    0.62920    1.000
    O24      O        0.81910    0.98236    0.49900    1.000
    C15      C        0.54630    0.86820    0.04660    1.000
    C16      C        0.50090    0.87050    0.90560    1.000
    C17      C        0.38130    0.94000    0.98390    1.000
    C18      C        0.27720    0.98920    0.97890    1.000
    C19      C        0.23490    0.01200    0.09230    1.000
    H7       H        0.27088    0.99606    0.17852    1.000
    C20      C        0.13640    0.05980    0.07230    1.000
    H8       H        0.10624    0.07735    0.14503    1.000
    C21      C        0.08510    0.08020    0.94040    1.000
    H9       H        0.02072    0.11238    0.92399    1.000
    C22      C        0.12830    0.05350    0.83510    1.000
    H10      H        0.08920    0.06747    0.74761    1.000
    C23      C        0.64420    0.82880    0.14530    1.000
    C24      C        0.53670    0.83850    0.78960    1.000
    C25      C        0.47940    0.97930    0.43660    1.000
    C26      C        0.95560    0.97960    0.53870    1.000
    C27      C        0.04820    0.84820    0.46890    1.000
    C28      C        0.06670    0.82290    0.61430    1.000
    Er5      Er       0.75213    0.72387    0.94744    1.000
    Er6      Er       0.28243    0.56605    0.13689    1.000
    N7       N        0.40020    0.58484    0.37030    1.000
    N8       N        0.46710    0.58738    0.59280    1.000
    H11      H        0.48133    0.57783    0.67727    1.000
    N9       N        0.22340    0.49150    0.34950    1.000
    O25      O        0.93360    0.66348    0.88570    1.000
    O26      O        0.97060    0.71426    0.12920    1.000
    O27      O        0.17270    0.65895    0.20160    1.000
    O28      O        0.15010    0.61907    0.94780    1.000
    O29      O        0.47670    0.63958    0.17320    1.000
    O30      O        0.39810    0.56370    0.94610    1.000
    O31      O        0.61990    0.70522    0.30230    1.000
    O32      O        0.72690    0.70742    0.60340    1.000
    O33      O        0.63540    0.66511    0.76640    1.000
    O34      O        0.53110    0.50784    0.83700    1.000
    O35      O        0.02570    0.55329    0.12920    1.000
    O36      O        0.81910    0.51764    0.99900    1.000
    C29      C        0.54630    0.63180    0.54660    1.000
    C30      C        0.50090    0.62950    0.40560    1.000
    C31      C        0.38130    0.56000    0.48390    1.000
    C32      C        0.27720    0.51080    0.47890    1.000
    C33      C        0.23490    0.48800    0.59230    1.000
    H12      H        0.27088    0.50394    0.67852    1.000
    C34      C        0.13640    0.44020    0.57230    1.000
    H13      H        0.10624    0.42265    0.64503    1.000
    C35      C        0.08510    0.41980    0.44040    1.000
    H14      H        0.02072    0.38762    0.42399    1.000
    C36      C        0.12830    0.44650    0.33510    1.000
    H15      H        0.08920    0.43253    0.24761    1.000
    C37      C        0.64420    0.67120    0.64530    1.000
    C38      C        0.53670    0.66150    0.28960    1.000
    C39      C        0.47940    0.52070    0.93660    1.000
    C40      C        0.95560    0.52040    0.03870    1.000
    C41      C        0.04820    0.65180    0.96890    1.000
    C42      C        0.06670    0.67710    0.11430    1.000
    Er7      Er       0.24787    0.22387    0.55256    1.000
    Er8      Er       0.71757    0.06605    0.36311    1.000
    N10      N        0.59980    0.08484    0.12970    1.000
    N11      N        0.53290    0.08738    0.90720    1.000
    H16      H        0.51867    0.07783    0.82273    1.000
    N12      N        0.77660    0.99150    0.15050    1.000
    O37      O        0.06640    0.16348    0.61430    1.000
    O38      O        0.02940    0.21426    0.37080    1.000
    O39      O        0.82730    0.15895    0.29840    1.000
    O40      O        0.84990    0.11907    0.55220    1.000
    O41      O        0.52330    0.13958    0.32680    1.000
    O42      O        0.60190    0.06370    0.55390    1.000
    O43      O        0.38010    0.20522    0.19770    1.000
    O44      O        0.27310    0.20742    0.89660    1.000
    O45      O        0.36460    0.16511    0.73360    1.000
    O46      O        0.46890    0.00784    0.66300    1.000
    O47      O        0.97430    0.05329    0.37080    1.000
    O48      O        0.18090    0.01764    0.50100    1.000
    C43      C        0.45370    0.13180    0.95340    1.000
    C44      C        0.49910    0.12950    0.09440    1.000
    C45      C        0.61870    0.06000    0.01610    1.000
    C46      C        0.72280    0.01080    0.02110    1.000
    C47      C        0.76510    0.98800    0.90770    1.000
    H17      H        0.72912    0.00394    0.82148    1.000
    C48      C        0.86360    0.94020    0.92770    1.000
    H18      H        0.89376    0.92265    0.85497    1.000
    C49      C        0.91490    0.91980    0.05960    1.000
    H19      H        0.97928    0.88762    0.07601    1.000
    C50      C        0.87170    0.94650    0.16490    1.000
    H20      H        0.91080    0.93253    0.25239    1.000
    C51      C        0.35580    0.17120    0.85470    1.000
    C52      C        0.46330    0.16150    0.21040    1.000
    C53      C        0.52060    0.02070    0.56340    1.000
    C54      C        0.04440    0.02040    0.46130    1.000
    C55      C        0.95180    0.15180    0.53110    1.000
    C56      C        0.93330    0.17710    0.38570    1.000
