# CIF file generated by openbabel 3.1.0, see https://openbabel.org
data_I
_chemical_name_common 'image0'
_cell_length_a 5.1318
_cell_length_b 7.8411
_cell_length_c 16.51
_cell_angle_alpha 90
_cell_angle_beta 90.119
_cell_angle_gamma 90
_space_group_name_H-M_alt 'P 1'
_space_group_name_Hall 'P 1'
loop_
    _symmetry_equiv_pos_as_xyz
    x,y,z
loop_
    _atom_site_label
    _atom_site_type_symbol
    _atom_site_fract_x
    _atom_site_fract_y
    _atom_site_fract_z
    _atom_site_occupancy
    Zn1      Zn       0.19821    0.14210    0.58625    1.000
    Zn2      Zn       0.19570    0.37060    0.92089    1.000
    O1       O        0.85030    0.23920    0.57850    1.000
    O2       O        0.32850    0.12840    0.69500    1.000
    O3       O        0.81150    0.40830    0.44850    1.000
    O4       O        0.41310    0.28960    0.51660    1.000
    O5       O        0.19510    0.61220    0.93690    1.000
    O6       O        0.15630    0.78550    0.06610    1.000
    O7       O        0.59350    0.72630    0.00850    1.000
    O8       O        0.27510    0.34860    0.80790    1.000
    O9       O        0.74500    0.10350    0.44360    1.000
    O10      O        0.27730    0.91600    0.93190    1.000
    O11      O        0.61430    0.38890    0.70670    1.000
    O12      O        0.64600    0.13750    0.80400    1.000
    P1       P        0.70350    0.26560    0.49857    1.000
    P2       P        0.30560    0.75550    0.98746    1.000
    P3       P        0.45390    0.25070    0.75346    1.000
    H1       H        0.66000    0.00300    0.46100    1.000
    H2       H        0.30000    0.02200    0.95800    1.000
    H3       H        0.71300    0.34100    0.66400    1.000
    H4       H        0.72700    0.16900    0.85300    1.000
    Zn3      Zn       0.80179    0.64210    0.41375    1.000
    Zn4      Zn       0.80430    0.87060    0.07911    1.000
    O13      O        0.14970    0.73920    0.42150    1.000
    O14      O        0.67150    0.62840    0.30500    1.000
    O15      O        0.18850    0.90830    0.55150    1.000
    O16      O        0.58690    0.78960    0.48340    1.000
    O17      O        0.80490    0.11220    0.06310    1.000
    O18      O        0.84370    0.28550    0.93390    1.000
    O19      O        0.40650    0.22630    0.99150    1.000
    O20      O        0.72490    0.84860    0.19210    1.000
    O21      O        0.25500    0.60350    0.55640    1.000
    O22      O        0.72270    0.41600    0.06810    1.000
    O23      O        0.38570    0.88890    0.29330    1.000
    O24      O        0.35400    0.63750    0.19600    1.000
    P4       P        0.29650    0.76560    0.50143    1.000
    P5       P        0.69440    0.25550    0.01254    1.000
    P6       P        0.54610    0.75070    0.24654    1.000
    H5       H        0.34000    0.50300    0.53900    1.000
    H6       H        0.70000    0.52200    0.04200    1.000
    H7       H        0.28700    0.84100    0.33600    1.000
    H8       H        0.27300    0.66900    0.14700    1.000
