# CIF file generated by openbabel 3.1.0, see https://openbabel.org
data_I
_chemical_name_common 'image0'
_cell_length_a 7.6033
_cell_length_b 9.352
_cell_length_c 15.193
_cell_angle_alpha 89.33
_cell_angle_beta 80.57
_cell_angle_gamma 85.897
_space_group_name_H-M_alt 'P 1'
_space_group_name_Hall 'P 1'
loop_
    _symmetry_equiv_pos_as_xyz
    x,y,z
loop_
    _atom_site_label
    _atom_site_type_symbol
    _atom_site_fract_x
    _atom_site_fract_y
    _atom_site_fract_z
    _atom_site_occupancy
    Zn1      Zn       0.10546    0.37983    0.23670    1.000
    O1       O        0.25550    0.13770    0.21360    1.000
    O2       O        0.25680    0.31450    0.11860    1.000
    O3       O        0.26060    0.45420    0.31260    1.000
    O4       O        0.14310    0.32000    0.42220    1.000
    N1       N        0.00300    0.56170    0.18270    1.000
    N2       N        0.84740    0.63060    0.22870    1.000
    N3       N        0.95620    0.76370    0.11480    1.000
    N4       N        0.87730    0.28590    0.28290    1.000
    N5       N        0.73650    0.28410    0.23560    1.000
    N6       N        0.67550    0.16270    0.36040    1.000
    C1       C        0.98000    0.88310    0.05480    1.000
    C2       C        0.05890    0.86490    0.96820    1.000
    H1       H        0.09900    0.77370    0.94660    1.000
    C3       C        0.92080    0.01740    0.08750    1.000
    H2       H        0.86730    0.02910    0.14680    1.000
    C4       C        0.06310    0.64350    0.11680    1.000
    H3       H        0.16680    0.62170    0.07620    1.000
    C5       C        0.82400    0.74920    0.18550    1.000
    H4       H        0.72790    0.81640    0.20110    1.000
    C6       C        0.58310    0.07970    0.43300    1.000
    C7       C        0.48920    0.96840    0.41170    1.000
    H5       H        0.48250    0.94790    0.35260    1.000
    C8       C        0.59590    0.11280    0.51840    1.000
    H6       H        0.66070    0.18890    0.53020    1.000
    C9       C        0.83610    0.21370    0.35720    1.000
    H7       H        0.90780    0.20020    0.40110    1.000
    C10      C        0.61840    0.20750    0.28390    1.000
    H8       H        0.51020    0.18660    0.26780    1.000
    C11      C        0.40350    0.09090    0.06560    1.000
    C12      C        0.46090    0.14170    0.98150    1.000
    H9       H        0.43520    0.23740    0.96810    1.000
    C13      C        0.55690    0.05150    0.91630    1.000
    H10      H        0.59500    0.08750    0.85950    1.000
    C14      C        0.29760    0.18900    0.13780    1.000
    C15      C        0.37870    0.45760    0.44790    1.000
    C16      C        0.34250    0.44420    0.53900    1.000
    H11      H        0.23650    0.40700    0.56580    1.000
    C17      C        0.46310    0.48570    0.59140    1.000
    H12      H        0.43800    0.47570    0.65300    1.000
    C18      C        0.24860    0.40620    0.39220    1.000
    Zn2      Zn       0.89454    0.62017    0.76330    1.000
    O5       O        0.74450    0.86230    0.78640    1.000
    O6       O        0.74320    0.68550    0.88140    1.000
    O7       O        0.73940    0.54580    0.68740    1.000
    O8       O        0.85690    0.68000    0.57780    1.000
    N7       N        0.99700    0.43830    0.81730    1.000
    N8       N        0.15260    0.36940    0.77130    1.000
    N9       N        0.04380    0.23630    0.88520    1.000
    N10      N        0.12270    0.71410    0.71710    1.000
    N11      N        0.26350    0.71590    0.76440    1.000
    N12      N        0.32450    0.83730    0.63960    1.000
    C19      C        0.02000    0.11690    0.94520    1.000
    C20      C        0.94110    0.13510    0.03180    1.000
    H13      H        0.90100    0.22630    0.05340    1.000
    C21      C        0.07920    0.98260    0.91250    1.000
    H14      H        0.13270    0.97090    0.85320    1.000
    C22      C        0.93690    0.35650    0.88320    1.000
    H15      H        0.83320    0.37830    0.92380    1.000
    C23      C        0.17600    0.25080    0.81450    1.000
    H16      H        0.27210    0.18360    0.79890    1.000
    C24      C        0.41690    0.92030    0.56700    1.000
    C25      C        0.51080    0.03160    0.58830    1.000
    H17      H        0.51750    0.05210    0.64740    1.000
    C26      C        0.40410    0.88720    0.48160    1.000
    H18      H        0.33930    0.81110    0.46980    1.000
    C27      C        0.16390    0.78630    0.64280    1.000
    H19      H        0.09220    0.79980    0.59890    1.000
    C28      C        0.38160    0.79250    0.71610    1.000
    H20      H        0.48980    0.81340    0.73220    1.000
    C29      C        0.59650    0.90910    0.93440    1.000
    C30      C        0.53910    0.85830    0.01850    1.000
    H21      H        0.56480    0.76260    0.03190    1.000
    C31      C        0.44310    0.94850    0.08370    1.000
    H22      H        0.40500    0.91250    0.14050    1.000
    C32      C        0.70240    0.81100    0.86220    1.000
    C33      C        0.62130    0.54240    0.55210    1.000
    C34      C        0.65750    0.55580    0.46100    1.000
    H23      H        0.76350    0.59300    0.43420    1.000
    C35      C        0.53690    0.51430    0.40860    1.000
    H24      H        0.56200    0.52430    0.34700    1.000
    C36      C        0.75140    0.59380    0.60780    1.000
