# CIF file generated by openbabel 3.1.0, see https://openbabel.org
data_I
_chemical_name_common 'image0'
_cell_length_a 14.2458
_cell_length_b 25.8856
_cell_length_c 27.836
_cell_angle_alpha 90
_cell_angle_beta 97.447
_cell_angle_gamma 90
_space_group_name_H-M_alt 'P 1'
_space_group_name_Hall 'P 1'
loop_
    _symmetry_equiv_pos_as_xyz
    x,y,z
loop_
    _atom_site_label
    _atom_site_type_symbol
    _atom_site_fract_x
    _atom_site_fract_y
    _atom_site_fract_z
    _atom_site_occupancy
    Gd1      Gd       0.52287    0.58429    0.78107    1.000
    Ag1      Ag       0.07450    0.51991    0.92629    1.000
    Ag2      Ag       0.91733    0.61500    0.46665    1.000
    Ag3      Ag       0.01542    0.26006    0.81604    1.000
    N1       N        0.70960    0.58610    0.78530    1.000
    N2       N        0.61350    0.51390    0.82880    1.000
    N3       N        0.71760    0.44990    0.82450    1.000
    N4       N        0.01560    0.44980    0.89300    1.000
    N5       N        0.58930    0.57620    0.70230    1.000
    N6       N        0.68120    0.61610    0.65450    1.000
    N7       N        0.90410    0.60180    0.54740    1.000
    N8       N        0.60750    0.66260    0.81960    1.000
    N9       N        0.71170    0.68180    0.88470    1.000
    N10      N        0.92720    0.80640    0.92780    1.000
    N11      N        0.33520    0.58410    0.77440    1.000
    N12      N        0.43760    0.50070    0.75560    1.000
    N13      N        0.34950    0.44150    0.78650    1.000
    N14      N        0.08670    0.32300    0.78020    1.000
    N15      N        0.43600    0.64920    0.72500    1.000
    N16      N        0.33550    0.64860    0.65580    1.000
    N17      N        0.04970    0.71430    0.63210    1.000
    N18      N        0.45060    0.60150    0.85710    1.000
    N19      N        0.35580    0.65740    0.88870    1.000
    N20      N        0.11850    0.59820    0.94520    1.000
    N21      N        0.05690    0.56380    0.46340    1.000
    C1       C        0.74490    0.53310    0.78140    1.000
    H1       H        0.81370    0.53170    0.79260    1.000
    H2       H        0.73430    0.52140    0.74720    1.000
    C2       C        0.69280    0.49870    0.81210    1.000
    C3       C        0.58650    0.47170    0.85410    1.000
    C4       C        0.50690    0.46520    0.87930    1.000
    H3       H        0.46320    0.49240    0.88210    1.000
    C5       C        0.49640    0.41660    0.90010    1.000
    H4       H        0.44410    0.41070    0.91730    1.000
    C6       C        0.56020    0.37700    0.89610    1.000
    H5       H        0.54980    0.34470    0.91080    1.000
    C7       C        0.63760    0.38210    0.87190    1.000
    H6       H        0.68040    0.35440    0.86920    1.000
    C8       C        0.64960    0.43130    0.85120    1.000
    C9       C        0.79400    0.41960    0.80690    1.000
    H7       H        0.81330    0.43710    0.77810    1.000
    H8       H        0.76870    0.38520    0.79640    1.000
    C10      C        0.88100    0.41220    0.84400    1.000
    C11      C        0.90960    0.36530    0.86040    1.000
    H9       H        0.87360    0.33560    0.84960    1.000
    C12      C        0.99190    0.35980    0.89330    1.000
    H10      H        0.01140    0.32660    0.90540    1.000
    C13      C        0.04440    0.40280    0.90770    1.000
    H11      H        0.10220    0.39890    0.92860    1.000
    C14      C        0.93610    0.45440    0.86170    1.000
    H12      H        0.91640    0.48800    0.85100    1.000
    C15      C        0.73480    0.61730    0.74430    1.000
    H13      H        0.80100    0.61020    0.73910    1.000
    H14      H        0.72890    0.65450    0.75140    1.000
    C16      C        0.66800    0.60280    0.69970    1.000
    C17      C        0.54820    0.57130    0.65460    1.000
    C18      C        0.46460    0.54670    0.63450    1.000
    H15      H        0.42660    0.52820    0.65430    1.000
    C19      C        0.43920    0.55030    0.58490    1.000
    H16      H        0.38180    0.53490    0.57060    1.000
    C20      C        0.49610    0.57610    0.55570    1.000
    H17      H        0.47690    0.57710    0.52180    1.000
    C21      C        0.57880    0.60020    0.57400    1.000
    H18      H        0.61670    0.61830    0.55380    1.000
    C22      C        0.60400    0.59630    0.62430    1.000
    C23      C        0.75420    0.65070    0.63930    1.000
    H19      H        0.78380    0.67040    0.66780    1.000
    H20      H        0.72360    0.67580    0.61530    1.000
    C24      C        0.83010    0.62180    0.61730    1.000
    C25      C        0.89500    0.59030    0.64490    1.000
    H21      H        0.89110    0.58550    0.67850    1.000
    C26      C        0.96470    0.56610    0.62380    1.000
    H22      H        0.01000    0.54490    0.64250    1.000
    C27      C        0.96780    0.57310    0.57490    1.000
    H23      H        0.01700    0.55700    0.56040    1.000
    C28      C        0.83780    0.62590    0.56840    1.000
    H24      H        0.79340    0.64690    0.54890    1.000
    C29      C        0.75240    0.60950    0.83180    1.000
    H25      H        0.75970    0.58290    0.85760    1.000
    H26      H        0.81590    0.62340    0.82830    1.000
    C30      C        0.69050    0.65130    0.84490    1.000
    C31      C        0.57090    0.70330    0.84360    1.000
    C32      C        0.48730    0.73150    0.83270    1.000
    H27      H        0.44500    0.72520    0.80400    1.000
    C33      C        0.46890    0.76910    0.86560    1.000
    H28      H        0.41350    0.78970    0.85880    1.000
    C34      C        0.52930    0.77760    0.90830    1.000
    H29      H        0.51150    0.80220    0.93080    1.000
    C35      C        0.61500    0.75150    0.91940    1.000
    H30      H        0.65680    0.75800    0.94830    1.000
    C36      C        0.63470    0.71540    0.88550    1.000
    C37      C        0.79480    0.67930    0.92070    1.000
    H31      H        0.82410    0.64470    0.91960    1.000
    H32      H        0.77550    0.68400    0.95330    1.000
    C38      C        0.86770    0.72030    0.91240    1.000
    C39      C        0.93810    0.71120    0.88260    1.000
    H33      H        0.94280    0.67880    0.86690    1.000
    C40      C        0.00180    0.75180    0.87660    1.000
    H34      H        0.05040    0.74680    0.85670    1.000
    C41      C        0.99460    0.79660    0.89830    1.000
    H35      H        0.03820    0.82320    0.89330    1.000
    C42      C        0.86700    0.76850    0.93450    1.000
    H36      H        0.82080    0.77480    0.95560    1.000
    C43      C        0.30210    0.53420    0.79210    1.000
    H37      H        0.23560    0.52800    0.77810    1.000
    H38      H        0.30500    0.53510    0.82790    1.000
    C44      C        0.36410    0.49150    0.77750    1.000
    C45      C        0.47520    0.45120    0.74770    1.000
    C46      C        0.55430    0.43710    0.72510    1.000
    H39      H        0.59070    0.46190    0.71050    1.000
    C47      C        0.57580    0.38520    0.72550    1.000
    H40      H        0.62740    0.37400    0.70970    1.000
    C48      C        0.52520    0.34870    0.74790    1.000
    H41      H        0.54500    0.31370    0.74830    1.000
    C49      C        0.44500    0.36220    0.77010    1.000
    H42      H        0.40910    0.33740    0.78510    1.000
    C50      C        0.42250    0.41470    0.76850    1.000
    C51      C        0.28160    0.41910    0.81630    1.000
    H43      H        0.25830    0.44690    0.83620    1.000
    H44      H        0.31510    0.39350    0.83870    1.000
    C52      C        0.19760    0.39310    0.78720    1.000
    C53      C        0.15380    0.41190    0.74470    1.000
    H45      H        0.17750    0.44220    0.73120    1.000
    C54      C        0.07300    0.38670    0.72010    1.000
    H46      H        0.04170    0.39930    0.69020    1.000
    C55      C        0.04290    0.34370    0.74140    1.000
    H47      H        0.98600    0.32790    0.72700    1.000
    C56      C        0.16560    0.34710    0.80230    1.000
    H48      H        0.20030    0.33100    0.82970    1.000
    C57      C        0.29700    0.59170    0.72240    1.000
    H49      H        0.29830    0.55850    0.70480    1.000
    H50      H        0.23060    0.60370    0.71970    1.000
    C58      C        0.35500    0.62990    0.70130    1.000
    C59      C        0.46990    0.68260    0.69110    1.000
    C60      C        0.55140    0.71280    0.69600    1.000
    H51      H        0.59170    0.71530    0.72590    1.000
    C61      C        0.57100    0.73890    0.65490    1.000
    H52      H        0.62640    0.75970    0.65670    1.000
    C62      C        0.51160    0.73560    0.61120    1.000
    H53      H        0.52930    0.75310    0.58380    1.000
    C63      C        0.42640    0.70740    0.60610    1.000
    H54      H        0.38470    0.70590    0.57660    1.000
    C64      C        0.40840    0.68190    0.64790    1.000
    C65      C        0.26150    0.62880    0.61850    1.000
    H55      H        0.23890    0.59520    0.62950    1.000
    H56      H        0.29010    0.62240    0.58840    1.000
    C66      C        0.17690    0.66450    0.60670    1.000
    C67      C        0.14120    0.67200    0.55860    1.000
    H57      H        0.17160    0.65740    0.53330    1.000
    C68      C        0.05980    0.70140    0.54830    1.000
    H58      H        0.03430    0.70790    0.51560    1.000
    C69      C        0.01730    0.72050    0.58450    1.000
    H59      H        0.96060    0.73970    0.57640    1.000
    C70      C        0.13030    0.68590    0.64200    1.000
    H60      H        0.15560    0.68070    0.67490    1.000
    C71      C        0.30500    0.62720    0.80360    1.000
    H61      H        0.23890    0.62190    0.81000    1.000
    H62      H        0.30830    0.66030    0.78600    1.000
    C72      C        0.37010    0.62870    0.85040    1.000
    C73      C        0.49130    0.61350    0.90410    1.000
    C74      C        0.57510    0.59710    0.93070    1.000
    H63      H        0.61430    0.57210    0.91820    1.000
    C75      C        0.59960    0.61840    0.97630    1.000
    H64      H        0.65720    0.60830    0.99500    1.000
    C76      C        0.54100    0.65450    0.99520    1.000
    H65      H        0.56020    0.66860    0.02650    1.000
    C77      C        0.45760    0.67020    0.97020    1.000
    H66      H        0.41770    0.69420    0.98350    1.000
    C78      C        0.43350    0.64950    0.92430    1.000
    C79      C        0.27800    0.69300    0.89400    1.000
    H67      H        0.24240    0.70010    0.86170    1.000
    H68      H        0.30410    0.72610    0.90760    1.000
    C80      C        0.21170    0.67070    0.92680    1.000
    C81      C        0.18680    0.69640    0.96600    1.000
    H69      H        0.20950    0.73040    0.97330    1.000
    C82      C        0.12740    0.67210    0.99540    1.000
    H70      H        0.11020    0.68890    0.02330    1.000
    C83      C        0.09470    0.62340    0.98300    1.000
    H71      H        0.05320    0.60720    0.00250    1.000
    C84      C        0.17580    0.62200    0.91750    1.000
    H72      H        0.19230    0.60420    0.89000    1.000
    C85      C        0.12650    0.54220    0.46660    1.000
    C86      C        0.21540    0.51450    0.46930    1.000
    H73      H        0.21810    0.48830    0.49480    1.000
    H74      H        0.26800    0.53880    0.47680    1.000
    H75      H        0.22020    0.49780    0.43810    1.000
    Gd2      Gd       0.47713    0.08429    0.71893    1.000
    Ag4      Ag       0.92550    0.01991    0.57371    1.000
    Ag5      Ag       0.08267    0.11500    0.03335    1.000
    Ag6      Ag       0.98458    0.76006    0.68396    1.000
    N22      N        0.29040    0.08610    0.71470    1.000
    N23      N        0.38650    0.01390    0.67120    1.000
    N24      N        0.28240    0.94990    0.67550    1.000
    N25      N        0.98440    0.94980    0.60700    1.000
    N26      N        0.41070    0.07620    0.79770    1.000
    N27      N        0.31880    0.11610    0.84550    1.000
    N28      N        0.09590    0.10180    0.95260    1.000
    N29      N        0.39250    0.16260    0.68040    1.000
    N30      N        0.28830    0.18180    0.61530    1.000
    N31      N        0.07280    0.30640    0.57220    1.000
    N32      N        0.66480    0.08410    0.72560    1.000
    N33      N        0.56240    0.00070    0.74440    1.000
    N34      N        0.65050    0.94150    0.71350    1.000
    N35      N        0.91330    0.82300    0.71980    1.000
    N36      N        0.56400    0.14920    0.77500    1.000
    N37      N        0.66450    0.14860    0.84420    1.000
    N38      N        0.95030    0.21430    0.86790    1.000
    N39      N        0.54940    0.10150    0.64290    1.000
    N40      N        0.64420    0.15740    0.61130    1.000
    N41      N        0.88150    0.09820    0.55480    1.000
    N42      N        0.94310    0.06380    0.03660    1.000
    C87      C        0.25510    0.03310    0.71860    1.000
    H76      H        0.18630    0.03170    0.70740    1.000
    H77      H        0.26570    0.02140    0.75280    1.000
    C88      C        0.30720    0.99870    0.68790    1.000
    C89      C        0.41350    0.97170    0.64590    1.000
    C90      C        0.49310    0.96520    0.62070    1.000
    H78      H        0.53680    0.99240    0.61790    1.000
    C91      C        0.50360    0.91660    0.59990    1.000
    H79      H        0.55590    0.91070    0.58270    1.000
    C92      C        0.43980    0.87700    0.60390    1.000
    H80      H        0.45020    0.84470    0.58920    1.000
    C93      C        0.36240    0.88210    0.62810    1.000
    H81      H        0.31960    0.85440    0.63080    1.000
    C94      C        0.35040    0.93130    0.64880    1.000
    C95      C        0.20600    0.91960    0.69310    1.000
    H82      H        0.18670    0.93710    0.72190    1.000
    H83      H        0.23130    0.88520    0.70360    1.000
    C96      C        0.11900    0.91220    0.65600    1.000
    C97      C        0.09040    0.86530    0.63960    1.000
    H84      H        0.12640    0.83560    0.65040    1.000
    C98      C        0.00810    0.85980    0.60670    1.000
    H85      H        0.98860    0.82660    0.59460    1.000
    C99      C        0.95560    0.90280    0.59230    1.000
    H86      H        0.89780    0.89890    0.57140    1.000
    C100     C        0.06390    0.95440    0.63830    1.000
    H87      H        0.08360    0.98800    0.64900    1.000
    C101     C        0.26520    0.11730    0.75570    1.000
    H88      H        0.19900    0.11020    0.76090    1.000
    H89      H        0.27110    0.15450    0.74860    1.000
    C102     C        0.33200    0.10280    0.80030    1.000
    C103     C        0.45180    0.07130    0.84540    1.000
    C104     C        0.53540    0.04670    0.86550    1.000
    H90      H        0.57340    0.02820    0.84570    1.000
    C105     C        0.56080    0.05030    0.91510    1.000
    H91      H        0.61820    0.03490    0.92940    1.000
    C106     C        0.50390    0.07610    0.94430    1.000
    H92      H        0.52310    0.07710    0.97820    1.000
    C107     C        0.42120    0.10020    0.92600    1.000
    H93      H        0.38330    0.11830    0.94620    1.000
    C108     C        0.39600    0.09630    0.87570    1.000
    C109     C        0.24580    0.15070    0.86070    1.000
    H94      H        0.21620    0.17040    0.83220    1.000
    H95      H        0.27640    0.17580    0.88470    1.000
    C110     C        0.16990    0.12180    0.88270    1.000
    C111     C        0.10500    0.09030    0.85510    1.000
    H96      H        0.10890    0.08550    0.82150    1.000
    C112     C        0.03530    0.06610    0.87620    1.000
    H97      H        0.99000    0.04490    0.85750    1.000
    C113     C        0.03220    0.07310    0.92510    1.000
    H98      H        0.98300    0.05700    0.93960    1.000
    C114     C        0.16220    0.12590    0.93160    1.000
    H99      H        0.20660    0.14690    0.95110    1.000
    C115     C        0.24760    0.10950    0.66820    1.000
    H100     H        0.24030    0.08290    0.64240    1.000
    H101     H        0.18410    0.12340    0.67170    1.000
    C116     C        0.30950    0.15130    0.65510    1.000
    C117     C        0.42910    0.20330    0.65640    1.000
    C118     C        0.51270    0.23150    0.66730    1.000
    H102     H        0.55500    0.22520    0.69600    1.000
    C119     C        0.53110    0.26910    0.63440    1.000
    H103     H        0.58650    0.28970    0.64120    1.000
    C120     C        0.47070    0.27760    0.59170    1.000
    H104     H        0.48850    0.30220    0.56920    1.000
    C121     C        0.38500    0.25150    0.58060    1.000
    H105     H        0.34320    0.25800    0.55170    1.000
    C122     C        0.36530    0.21540    0.61450    1.000
    C123     C        0.20520    0.17930    0.57930    1.000
    H106     H        0.17590    0.14470    0.58040    1.000
    H107     H        0.22450    0.18400    0.54670    1.000
    C124     C        0.13230    0.22030    0.58760    1.000
    C125     C        0.06190    0.21120    0.61740    1.000
    H108     H        0.05720    0.17880    0.63310    1.000
    C126     C        0.99820    0.25180    0.62340    1.000
    H109     H        0.94960    0.24680    0.64330    1.000
    C127     C        0.00540    0.29660    0.60170    1.000
    H110     H        0.96180    0.32320    0.60670    1.000
    C128     C        0.13300    0.26850    0.56550    1.000
    H111     H        0.17920    0.27480    0.54440    1.000
    C129     C        0.69790    0.03420    0.70790    1.000
    H112     H        0.76440    0.02800    0.72190    1.000
    H113     H        0.69500    0.03510    0.67210    1.000
    C130     C        0.63590    0.99150    0.72250    1.000
    C131     C        0.52480    0.95120    0.75230    1.000
    C132     C        0.44570    0.93710    0.77490    1.000
    H114     H        0.40930    0.96190    0.78950    1.000
    C133     C        0.42420    0.88520    0.77450    1.000
    H115     H        0.37260    0.87400    0.79030    1.000
    C134     C        0.47480    0.84870    0.75210    1.000
    H116     H        0.45500    0.81370    0.75170    1.000
    C135     C        0.55500    0.86220    0.72990    1.000
    H117     H        0.59090    0.83740    0.71490    1.000
    C136     C        0.57750    0.91470    0.73150    1.000
    C137     C        0.71840    0.91910    0.68370    1.000
    H118     H        0.74170    0.94690    0.66380    1.000
    H119     H        0.68490    0.89350    0.66130    1.000
    C138     C        0.80240    0.89310    0.71280    1.000
    C139     C        0.84620    0.91190    0.75530    1.000
    H120     H        0.82250    0.94220    0.76880    1.000
    C140     C        0.92700    0.88670    0.77990    1.000
    H121     H        0.95830    0.89930    0.80980    1.000
    C141     C        0.95710    0.84370    0.75860    1.000
    H122     H        0.01400    0.82790    0.77300    1.000
    C142     C        0.83440    0.84710    0.69770    1.000
    H123     H        0.79970    0.83100    0.67030    1.000
    C143     C        0.70300    0.09170    0.77760    1.000
    H124     H        0.70170    0.05850    0.79520    1.000
    H125     H        0.76940    0.10370    0.78030    1.000
    C144     C        0.64500    0.12990    0.79870    1.000
    C145     C        0.53010    0.18260    0.80890    1.000
    C146     C        0.44860    0.21280    0.80400    1.000
    H126     H        0.40830    0.21530    0.77410    1.000
    C147     C        0.42900    0.23890    0.84510    1.000
    H127     H        0.37360    0.25970    0.84330    1.000
    C148     C        0.48840    0.23560    0.88880    1.000
    H128     H        0.47070    0.25310    0.91620    1.000
    C149     C        0.57360    0.20740    0.89390    1.000
    H129     H        0.61530    0.20590    0.92340    1.000
    C150     C        0.59160    0.18190    0.85210    1.000
    C151     C        0.73850    0.12880    0.88150    1.000
    H130     H        0.76110    0.09520    0.87050    1.000
    H131     H        0.70990    0.12240    0.91160    1.000
    C152     C        0.82310    0.16450    0.89330    1.000
    C153     C        0.85880    0.17200    0.94140    1.000
    H132     H        0.82840    0.15740    0.96670    1.000
    C154     C        0.94020    0.20140    0.95170    1.000
    H133     H        0.96570    0.20790    0.98440    1.000
    C155     C        0.98270    0.22050    0.91550    1.000
    H134     H        0.03940    0.23970    0.92360    1.000
    C156     C        0.86970    0.18590    0.85800    1.000
    H135     H        0.84440    0.18070    0.82510    1.000
    C157     C        0.69500    0.12720    0.69640    1.000
    H136     H        0.76110    0.12190    0.69000    1.000
    H137     H        0.69170    0.16030    0.71400    1.000
    C158     C        0.62990    0.12870    0.64960    1.000
    C159     C        0.50870    0.11350    0.59590    1.000
    C160     C        0.42490    0.09710    0.56930    1.000
    H138     H        0.38570    0.07210    0.58180    1.000
    C161     C        0.40040    0.11840    0.52370    1.000
    H139     H        0.34280    0.10830    0.50500    1.000
    C162     C        0.45900    0.15450    0.50480    1.000
    H140     H        0.43980    0.16860    0.47350    1.000
    C163     C        0.54240    0.17020    0.52980    1.000
    H141     H        0.58230    0.19420    0.51650    1.000
    C164     C        0.56650    0.14950    0.57570    1.000
    C165     C        0.72200    0.19300    0.60600    1.000
    H142     H        0.75760    0.20010    0.63830    1.000
    H143     H        0.69590    0.22610    0.59240    1.000
    C166     C        0.78830    0.17070    0.57320    1.000
    C167     C        0.81320    0.19640    0.53400    1.000
    H144     H        0.79050    0.23040    0.52670    1.000
    C168     C        0.87260    0.17210    0.50460    1.000
    H145     H        0.88980    0.18890    0.47670    1.000
    C169     C        0.90530    0.12340    0.51700    1.000
    H146     H        0.94680    0.10720    0.49750    1.000
    C170     C        0.82420    0.12200    0.58250    1.000
    H147     H        0.80770    0.10420    0.61000    1.000
    C171     C        0.87350    0.04220    0.03340    1.000
    C172     C        0.78460    0.01450    0.03070    1.000
    H148     H        0.78190    0.98830    0.00520    1.000
    H149     H        0.73200    0.03880    0.02320    1.000
    H150     H        0.77980    0.99780    0.06190    1.000
    Gd3      Gd       0.47713    0.41571    0.21893    1.000
    Ag7      Ag       0.92550    0.48009    0.07371    1.000
    Ag8      Ag       0.08267    0.38500    0.53335    1.000
    Ag9      Ag       0.98458    0.73994    0.18396    1.000
    N43      N        0.29040    0.41390    0.21470    1.000
    N44      N        0.38650    0.48610    0.17120    1.000
    N45      N        0.28240    0.55010    0.17550    1.000
    N46      N        0.98440    0.55020    0.10700    1.000
    N47      N        0.41070    0.42380    0.29770    1.000
    N48      N        0.31880    0.38390    0.34550    1.000
    N49      N        0.09590    0.39820    0.45260    1.000
    N50      N        0.39250    0.33740    0.18040    1.000
    N51      N        0.28830    0.31820    0.11530    1.000
    N52      N        0.07280    0.19360    0.07220    1.000
    N53      N        0.66480    0.41590    0.22560    1.000
    N54      N        0.56240    0.49930    0.24440    1.000
    N55      N        0.65050    0.55850    0.21350    1.000
    N56      N        0.91330    0.67700    0.21980    1.000
    N57      N        0.56400    0.35080    0.27500    1.000
    N58      N        0.66450    0.35140    0.34420    1.000
    N59      N        0.95030    0.28570    0.36790    1.000
    N60      N        0.54940    0.39850    0.14290    1.000
    N61      N        0.64420    0.34260    0.11130    1.000
    N62      N        0.88150    0.40180    0.05480    1.000
    N63      N        0.94310    0.43620    0.53660    1.000
    C173     C        0.25510    0.46690    0.21860    1.000
    H151     H        0.18630    0.46830    0.20740    1.000
    H152     H        0.26570    0.47860    0.25280    1.000
    C174     C        0.30720    0.50130    0.18790    1.000
    C175     C        0.41350    0.52830    0.14590    1.000
    C176     C        0.49310    0.53480    0.12070    1.000
    H153     H        0.53680    0.50760    0.11790    1.000
    C177     C        0.50360    0.58340    0.09990    1.000
    H154     H        0.55590    0.58930    0.08270    1.000
    C178     C        0.43980    0.62300    0.10390    1.000
    H155     H        0.45020    0.65530    0.08920    1.000
    C179     C        0.36240    0.61790    0.12810    1.000
    H156     H        0.31960    0.64560    0.13080    1.000
    C180     C        0.35040    0.56870    0.14880    1.000
    C181     C        0.20600    0.58040    0.19310    1.000
    H157     H        0.18670    0.56290    0.22190    1.000
    H158     H        0.23130    0.61480    0.20360    1.000
    C182     C        0.11900    0.58780    0.15600    1.000
    C183     C        0.09040    0.63470    0.13960    1.000
    H159     H        0.12640    0.66440    0.15040    1.000
    C184     C        0.00810    0.64020    0.10670    1.000
    H160     H        0.98860    0.67340    0.09460    1.000
    C185     C        0.95560    0.59720    0.09230    1.000
    H161     H        0.89780    0.60110    0.07140    1.000
    C186     C        0.06390    0.54560    0.13830    1.000
    H162     H        0.08360    0.51200    0.14900    1.000
    C187     C        0.26520    0.38270    0.25570    1.000
    H163     H        0.19900    0.38980    0.26090    1.000
    H164     H        0.27110    0.34550    0.24860    1.000
    C188     C        0.33200    0.39720    0.30030    1.000
    C189     C        0.45180    0.42870    0.34540    1.000
    C190     C        0.53540    0.45330    0.36550    1.000
    H165     H        0.57340    0.47180    0.34570    1.000
    C191     C        0.56080    0.44970    0.41510    1.000
    H166     H        0.61820    0.46510    0.42940    1.000
    C192     C        0.50390    0.42390    0.44430    1.000
    H167     H        0.52310    0.42290    0.47820    1.000
    C193     C        0.42120    0.39980    0.42600    1.000
    H168     H        0.38330    0.38170    0.44620    1.000
    C194     C        0.39600    0.40370    0.37570    1.000
    C195     C        0.24580    0.34930    0.36070    1.000
    H169     H        0.21620    0.32960    0.33220    1.000
    H170     H        0.27640    0.32420    0.38470    1.000
    C196     C        0.16990    0.37820    0.38270    1.000
    C197     C        0.10500    0.40970    0.35510    1.000
    H171     H        0.10890    0.41450    0.32150    1.000
    C198     C        0.03530    0.43390    0.37620    1.000
    H172     H        0.99000    0.45510    0.35750    1.000
    C199     C        0.03220    0.42690    0.42510    1.000
    H173     H        0.98300    0.44300    0.43960    1.000
    C200     C        0.16220    0.37410    0.43160    1.000
    H174     H        0.20660    0.35310    0.45110    1.000
    C201     C        0.24760    0.39050    0.16820    1.000
    H175     H        0.24030    0.41710    0.14240    1.000
    H176     H        0.18410    0.37660    0.17170    1.000
    C202     C        0.30950    0.34870    0.15510    1.000
    C203     C        0.42910    0.29670    0.15640    1.000
    C204     C        0.51270    0.26850    0.16730    1.000
    H177     H        0.55500    0.27480    0.19600    1.000
    C205     C        0.53110    0.23090    0.13440    1.000
    H178     H        0.58650    0.21030    0.14120    1.000
    C206     C        0.47070    0.22240    0.09170    1.000
    H179     H        0.48850    0.19780    0.06920    1.000
    C207     C        0.38500    0.24850    0.08060    1.000
    H180     H        0.34320    0.24200    0.05170    1.000
    C208     C        0.36530    0.28460    0.11450    1.000
    C209     C        0.20520    0.32070    0.07930    1.000
    H181     H        0.17590    0.35530    0.08040    1.000
    H182     H        0.22450    0.31600    0.04670    1.000
    C210     C        0.13230    0.27970    0.08760    1.000
    C211     C        0.06190    0.28880    0.11740    1.000
    H183     H        0.05720    0.32120    0.13310    1.000
    C212     C        0.99820    0.24820    0.12340    1.000
    H184     H        0.94960    0.25320    0.14330    1.000
    C213     C        0.00540    0.20340    0.10170    1.000
    H185     H        0.96180    0.17680    0.10670    1.000
    C214     C        0.13300    0.23150    0.06550    1.000
    H186     H        0.17920    0.22520    0.04440    1.000
    C215     C        0.69790    0.46580    0.20790    1.000
    H187     H        0.76440    0.47200    0.22190    1.000
    H188     H        0.69500    0.46490    0.17210    1.000
    C216     C        0.63590    0.50850    0.22250    1.000
    C217     C        0.52480    0.54880    0.25230    1.000
    C218     C        0.44570    0.56290    0.27490    1.000
    H189     H        0.40930    0.53810    0.28950    1.000
    C219     C        0.42420    0.61480    0.27450    1.000
    H190     H        0.37260    0.62600    0.29030    1.000
    C220     C        0.47480    0.65130    0.25210    1.000
    H191     H        0.45500    0.68630    0.25170    1.000
    C221     C        0.55500    0.63780    0.22990    1.000
    H192     H        0.59090    0.66260    0.21490    1.000
    C222     C        0.57750    0.58530    0.23150    1.000
    C223     C        0.71840    0.58090    0.18370    1.000
    H193     H        0.74170    0.55310    0.16380    1.000
    H194     H        0.68490    0.60650    0.16130    1.000
    C224     C        0.80240    0.60690    0.21280    1.000
    C225     C        0.84620    0.58810    0.25530    1.000
    H195     H        0.82250    0.55780    0.26880    1.000
    C226     C        0.92700    0.61330    0.27990    1.000
    H196     H        0.95830    0.60070    0.30980    1.000
    C227     C        0.95710    0.65630    0.25860    1.000
    H197     H        0.01400    0.67210    0.27300    1.000
    C228     C        0.83440    0.65290    0.19770    1.000
    H198     H        0.79970    0.66900    0.17030    1.000
    C229     C        0.70300    0.40830    0.27760    1.000
    H199     H        0.70170    0.44150    0.29520    1.000
    H200     H        0.76940    0.39630    0.28030    1.000
    C230     C        0.64500    0.37010    0.29870    1.000
    C231     C        0.53010    0.31740    0.30890    1.000
    C232     C        0.44860    0.28720    0.30400    1.000
    H201     H        0.40830    0.28470    0.27410    1.000
    C233     C        0.42900    0.26110    0.34510    1.000
    H202     H        0.37360    0.24030    0.34330    1.000
    C234     C        0.48840    0.26440    0.38880    1.000
    H203     H        0.47070    0.24690    0.41620    1.000
    C235     C        0.57360    0.29260    0.39390    1.000
    H204     H        0.61530    0.29410    0.42340    1.000
    C236     C        0.59160    0.31810    0.35210    1.000
    C237     C        0.73850    0.37120    0.38150    1.000
    H205     H        0.76110    0.40480    0.37050    1.000
    H206     H        0.70990    0.37760    0.41160    1.000
    C238     C        0.82310    0.33550    0.39330    1.000
    C239     C        0.85880    0.32800    0.44140    1.000
    H207     H        0.82840    0.34260    0.46670    1.000
    C240     C        0.94020    0.29860    0.45170    1.000
    H208     H        0.96570    0.29210    0.48440    1.000
    C241     C        0.98270    0.27950    0.41550    1.000
    H209     H        0.03940    0.26030    0.42360    1.000
    C242     C        0.86970    0.31410    0.35800    1.000
    H210     H        0.84440    0.31930    0.32510    1.000
    C243     C        0.69500    0.37280    0.19640    1.000
    H211     H        0.76110    0.37810    0.19000    1.000
    H212     H        0.69170    0.33970    0.21400    1.000
    C244     C        0.62990    0.37130    0.14960    1.000
    C245     C        0.50870    0.38650    0.09590    1.000
    C246     C        0.42490    0.40290    0.06930    1.000
    H213     H        0.38570    0.42790    0.08180    1.000
    C247     C        0.40040    0.38160    0.02370    1.000
    H214     H        0.34280    0.39170    0.00500    1.000
    C248     C        0.45900    0.34550    0.00480    1.000
    H215     H        0.43980    0.33140    0.97350    1.000
    C249     C        0.54240    0.32980    0.02980    1.000
    H216     H        0.58230    0.30580    0.01650    1.000
    C250     C        0.56650    0.35050    0.07570    1.000
    C251     C        0.72200    0.30700    0.10600    1.000
    H217     H        0.75760    0.29990    0.13830    1.000
    H218     H        0.69590    0.27390    0.09240    1.000
    C252     C        0.78830    0.32930    0.07320    1.000
    C253     C        0.81320    0.30360    0.03400    1.000
    H219     H        0.79050    0.26960    0.02670    1.000
    C254     C        0.87260    0.32790    0.00460    1.000
    H220     H        0.88980    0.31110    0.97670    1.000
    C255     C        0.90530    0.37660    0.01700    1.000
    H221     H        0.94680    0.39280    0.99750    1.000
    C256     C        0.82420    0.37800    0.08250    1.000
    H222     H        0.80770    0.39580    0.11000    1.000
    C257     C        0.87350    0.45780    0.53340    1.000
    C258     C        0.78460    0.48550    0.53070    1.000
    H223     H        0.78190    0.51170    0.50520    1.000
    H224     H        0.73200    0.46120    0.52320    1.000
    H225     H        0.77980    0.50220    0.56190    1.000
    Gd4      Gd       0.52287    0.91571    0.28107    1.000
    Ag10     Ag       0.07450    0.98009    0.42629    1.000
    Ag11     Ag       0.91733    0.88500    0.96665    1.000
    Ag12     Ag       0.01542    0.23994    0.31604    1.000
    N64      N        0.70960    0.91390    0.28530    1.000
    N65      N        0.61350    0.98610    0.32880    1.000
    N66      N        0.71760    0.05010    0.32450    1.000
    N67      N        0.01560    0.05020    0.39300    1.000
    N68      N        0.58930    0.92380    0.20230    1.000
    N69      N        0.68120    0.88390    0.15450    1.000
    N70      N        0.90410    0.89820    0.04740    1.000
    N71      N        0.60750    0.83740    0.31960    1.000
    N72      N        0.71170    0.81820    0.38470    1.000
    N73      N        0.92720    0.69360    0.42780    1.000
    N74      N        0.33520    0.91590    0.27440    1.000
    N75      N        0.43760    0.99930    0.25560    1.000
    N76      N        0.34950    0.05850    0.28650    1.000
    N77      N        0.08670    0.17700    0.28020    1.000
    N78      N        0.43600    0.85080    0.22500    1.000
    N79      N        0.33550    0.85140    0.15580    1.000
    N80      N        0.04970    0.78570    0.13210    1.000
    N81      N        0.45060    0.89850    0.35710    1.000
    N82      N        0.35580    0.84260    0.38870    1.000
    N83      N        0.11850    0.90180    0.44520    1.000
    N84      N        0.05690    0.93620    0.96340    1.000
    C259     C        0.74490    0.96690    0.28140    1.000
    H226     H        0.81370    0.96830    0.29260    1.000
    H227     H        0.73430    0.97860    0.24720    1.000
    C260     C        0.69280    0.00130    0.31210    1.000
    C261     C        0.58650    0.02830    0.35410    1.000
    C262     C        0.50690    0.03480    0.37930    1.000
    H228     H        0.46320    0.00760    0.38210    1.000
    C263     C        0.49640    0.08340    0.40010    1.000
    H229     H        0.44410    0.08930    0.41730    1.000
    C264     C        0.56020    0.12300    0.39610    1.000
    H230     H        0.54980    0.15530    0.41080    1.000
    C265     C        0.63760    0.11790    0.37190    1.000
    H231     H        0.68040    0.14560    0.36920    1.000
    C266     C        0.64960    0.06870    0.35120    1.000
    C267     C        0.79400    0.08040    0.30690    1.000
    H232     H        0.81330    0.06290    0.27810    1.000
    H233     H        0.76870    0.11480    0.29640    1.000
    C268     C        0.88100    0.08780    0.34400    1.000
    C269     C        0.90960    0.13470    0.36040    1.000
    H234     H        0.87360    0.16440    0.34960    1.000
    C270     C        0.99190    0.14020    0.39330    1.000
    H235     H        0.01140    0.17340    0.40540    1.000
    C271     C        0.04440    0.09720    0.40770    1.000
    H236     H        0.10220    0.10110    0.42860    1.000
    C272     C        0.93610    0.04560    0.36170    1.000
    H237     H        0.91640    0.01200    0.35100    1.000
    C273     C        0.73480    0.88270    0.24430    1.000
    H238     H        0.80100    0.88980    0.23910    1.000
    H239     H        0.72890    0.84550    0.25140    1.000
    C274     C        0.66800    0.89720    0.19970    1.000
    C275     C        0.54820    0.92870    0.15460    1.000
    C276     C        0.46460    0.95330    0.13450    1.000
    H240     H        0.42660    0.97180    0.15430    1.000
    C277     C        0.43920    0.94970    0.08490    1.000
    H241     H        0.38180    0.96510    0.07060    1.000
    C278     C        0.49610    0.92390    0.05570    1.000
    H242     H        0.47690    0.92290    0.02180    1.000
    C279     C        0.57880    0.89980    0.07400    1.000
    H243     H        0.61670    0.88170    0.05380    1.000
    C280     C        0.60400    0.90370    0.12430    1.000
    C281     C        0.75420    0.84930    0.13930    1.000
    H244     H        0.78380    0.82960    0.16780    1.000
    H245     H        0.72360    0.82420    0.11530    1.000
    C282     C        0.83010    0.87820    0.11730    1.000
    C283     C        0.89500    0.90970    0.14490    1.000
    H246     H        0.89110    0.91450    0.17850    1.000
    C284     C        0.96470    0.93390    0.12380    1.000
    H247     H        0.01000    0.95510    0.14250    1.000
    C285     C        0.96780    0.92690    0.07490    1.000
    H248     H        0.01700    0.94300    0.06040    1.000
    C286     C        0.83780    0.87410    0.06840    1.000
    H249     H        0.79340    0.85310    0.04890    1.000
    C287     C        0.75240    0.89050    0.33180    1.000
    H250     H        0.75970    0.91710    0.35760    1.000
    H251     H        0.81590    0.87660    0.32830    1.000
    C288     C        0.69050    0.84870    0.34490    1.000
    C289     C        0.57090    0.79670    0.34360    1.000
    C290     C        0.48730    0.76850    0.33270    1.000
    H252     H        0.44500    0.77480    0.30400    1.000
    C291     C        0.46890    0.73090    0.36560    1.000
    H253     H        0.41350    0.71030    0.35880    1.000
    C292     C        0.52930    0.72240    0.40830    1.000
    H254     H        0.51150    0.69780    0.43080    1.000
    C293     C        0.61500    0.74850    0.41940    1.000
    H255     H        0.65680    0.74200    0.44830    1.000
    C294     C        0.63470    0.78460    0.38550    1.000
    C295     C        0.79480    0.82070    0.42070    1.000
    H256     H        0.82410    0.85530    0.41960    1.000
    H257     H        0.77550    0.81600    0.45330    1.000
    C296     C        0.86770    0.77970    0.41240    1.000
    C297     C        0.93810    0.78880    0.38260    1.000
    H258     H        0.94280    0.82120    0.36690    1.000
    C298     C        0.00180    0.74820    0.37660    1.000
    H259     H        0.05040    0.75320    0.35670    1.000
    C299     C        0.99460    0.70340    0.39830    1.000
    H260     H        0.03820    0.67680    0.39330    1.000
    C300     C        0.86700    0.73150    0.43450    1.000
    H261     H        0.82080    0.72520    0.45560    1.000
    C301     C        0.30210    0.96580    0.29210    1.000
    H262     H        0.23560    0.97200    0.27810    1.000
    H263     H        0.30500    0.96490    0.32790    1.000
    C302     C        0.36410    0.00850    0.27750    1.000
    C303     C        0.47520    0.04880    0.24770    1.000
    C304     C        0.55430    0.06290    0.22510    1.000
    H264     H        0.59070    0.03810    0.21050    1.000
    C305     C        0.57580    0.11480    0.22550    1.000
    H265     H        0.62740    0.12600    0.20970    1.000
    C306     C        0.52520    0.15130    0.24790    1.000
    H266     H        0.54500    0.18630    0.24830    1.000
    C307     C        0.44500    0.13780    0.27010    1.000
    H267     H        0.40910    0.16260    0.28510    1.000
    C308     C        0.42250    0.08530    0.26850    1.000
    C309     C        0.28160    0.08090    0.31630    1.000
    H268     H        0.25830    0.05310    0.33620    1.000
    H269     H        0.31510    0.10650    0.33870    1.000
    C310     C        0.19760    0.10690    0.28720    1.000
    C311     C        0.15380    0.08810    0.24470    1.000
    H270     H        0.17750    0.05780    0.23120    1.000
    C312     C        0.07300    0.11330    0.22010    1.000
    H271     H        0.04170    0.10070    0.19020    1.000
    C313     C        0.04290    0.15630    0.24140    1.000
    H272     H        0.98600    0.17210    0.22700    1.000
    C314     C        0.16560    0.15290    0.30230    1.000
    H273     H        0.20030    0.16900    0.32970    1.000
    C315     C        0.29700    0.90830    0.22240    1.000
    H274     H        0.29830    0.94150    0.20480    1.000
    H275     H        0.23060    0.89630    0.21970    1.000
    C316     C        0.35500    0.87010    0.20130    1.000
    C317     C        0.46990    0.81740    0.19110    1.000
    C318     C        0.55140    0.78720    0.19600    1.000
    H276     H        0.59170    0.78470    0.22590    1.000
    C319     C        0.57100    0.76110    0.15490    1.000
    H277     H        0.62640    0.74030    0.15670    1.000
    C320     C        0.51160    0.76440    0.11120    1.000
    H278     H        0.52930    0.74690    0.08380    1.000
    C321     C        0.42640    0.79260    0.10610    1.000
    H279     H        0.38470    0.79410    0.07660    1.000
    C322     C        0.40840    0.81810    0.14790    1.000
    C323     C        0.26150    0.87120    0.11850    1.000
    H280     H        0.23890    0.90480    0.12950    1.000
    H281     H        0.29010    0.87760    0.08840    1.000
    C324     C        0.17690    0.83550    0.10670    1.000
    C325     C        0.14120    0.82800    0.05860    1.000
    H282     H        0.17160    0.84260    0.03330    1.000
    C326     C        0.05980    0.79860    0.04830    1.000
    H283     H        0.03430    0.79210    0.01560    1.000
    C327     C        0.01730    0.77950    0.08450    1.000
    H284     H        0.96060    0.76030    0.07640    1.000
    C328     C        0.13030    0.81410    0.14200    1.000
    H285     H        0.15560    0.81930    0.17490    1.000
    C329     C        0.30500    0.87280    0.30360    1.000
    H286     H        0.23890    0.87810    0.31000    1.000
    H287     H        0.30830    0.83970    0.28600    1.000
    C330     C        0.37010    0.87130    0.35040    1.000
    C331     C        0.49130    0.88650    0.40410    1.000
    C332     C        0.57510    0.90290    0.43070    1.000
    H288     H        0.61430    0.92790    0.41820    1.000
    C333     C        0.59960    0.88160    0.47630    1.000
    H289     H        0.65720    0.89170    0.49500    1.000
    C334     C        0.54100    0.84550    0.49520    1.000
    H290     H        0.56020    0.83140    0.52650    1.000
    C335     C        0.45760    0.82980    0.47020    1.000
    H291     H        0.41770    0.80580    0.48350    1.000
    C336     C        0.43350    0.85050    0.42430    1.000
    C337     C        0.27800    0.80700    0.39400    1.000
    H292     H        0.24240    0.79990    0.36170    1.000
    H293     H        0.30410    0.77390    0.40760    1.000
    C338     C        0.21170    0.82930    0.42680    1.000
    C339     C        0.18680    0.80360    0.46600    1.000
    H294     H        0.20950    0.76960    0.47330    1.000
    C340     C        0.12740    0.82790    0.49540    1.000
    H295     H        0.11020    0.81110    0.52330    1.000
    C341     C        0.09470    0.87660    0.48300    1.000
    H296     H        0.05320    0.89280    0.50250    1.000
    C342     C        0.17580    0.87800    0.41750    1.000
    H297     H        0.19230    0.89580    0.39000    1.000
    C343     C        0.12650    0.95780    0.96660    1.000
    C344     C        0.21540    0.98550    0.96930    1.000
    H298     H        0.21810    0.01170    0.99480    1.000
    H299     H        0.26800    0.96120    0.97680    1.000
    H300     H        0.22020    0.00220    0.93810    1.000
