# CIF file generated by openbabel 3.1.0, see https://openbabel.org
data_I
_chemical_name_common 'RENWEM01_clean'
_cell_length_a 7.497
_cell_length_b 7.7376
_cell_length_c 7.7376
_cell_angle_alpha 116.72
_cell_angle_beta 102.892
_cell_angle_gamma 102.892
_space_group_name_H-M_alt 'P 1'
_space_group_name_Hall 'P 1'
loop_
    _symmetry_equiv_pos_as_xyz
    x,y,z
loop_
    _atom_site_label
    _atom_site_type_symbol
    _atom_site_fract_x
    _atom_site_fract_y
    _atom_site_fract_z
    _atom_site_occupancy
    Co1      Co       0.49958    0.85837    0.13712    1.000
    Co2      Co       0.99958    0.13712    0.85837    1.000
    H1       H        0.27680    0.68200    0.47520    1.000
    H2       H        0.21910    0.38730    0.49490    1.000
    H3       H        0.77680    0.47520    0.68200    1.000
    H4       H        0.71910    0.49490    0.38730    1.000
    C1       C        0.26930    0.88061    0.77659    1.000
    C2       C        0.26480    0.67879    0.61281    1.000
    C3       C        0.22060    0.49905    0.60515    1.000
    C4       C        0.17120    0.46114    0.76386    1.000
    C5       C        0.76930    0.77659    0.88061    1.000
    C6       C        0.76480    0.61281    0.67879    1.000
    C7       C        0.72060    0.60515    0.49905    1.000
    C8       C        0.67120    0.76386    0.46114    1.000
    O1       O        0.38810    0.97648    0.96072    1.000
    O2       O        0.15270    0.95060    0.70920    1.000
    O3       O        0.24070    0.59957    0.95283    1.000
    O4       O        0.05780    0.27727    0.69273    1.000
    O5       O        0.88810    0.96072    0.97648    1.000
    O6       O        0.65270    0.70920    0.95060    1.000
    O7       O        0.74070    0.95283    0.59957    1.000
    O8       O        0.55780    0.69273    0.27727    1.000
