# CIF file generated by openbabel 3.1.0, see https://openbabel.org
data_I
_chemical_name_common 'image0'
_cell_length_a 18.0804
_cell_length_b 18.0804
_cell_length_c 48.7231
_cell_angle_alpha 90
_cell_angle_beta 90
_cell_angle_gamma 120
_space_group_name_H-M_alt 'P 1'
_space_group_name_Hall 'P 1'
loop_
    _symmetry_equiv_pos_as_xyz
    x,y,z
loop_
    _atom_site_label
    _atom_site_type_symbol
    _atom_site_fract_x
    _atom_site_fract_y
    _atom_site_fract_z
    _atom_site_occupancy
    Cu1      Cu       0.50470    0.45110    0.52170    1.000
    C1       C        0.62750    0.54330    0.47160    1.000
    O1       O        0.62300    0.51800    0.49700    1.000
    O2       O        0.56680    0.55400    0.46140    1.000
    C2       C        0.80460    0.63300    0.42140    1.000
    C3       C        0.86100    0.61400    0.43420    1.000
    H1       H        0.90900    0.62200    0.42500    1.000
    C4       C        0.84600    0.58200    0.46090    1.000
    C5       C        0.77400    0.57000    0.47480    1.000
    H2       H        0.76300    0.54900    0.49240    1.000
    C6       C        0.71680    0.58970    0.46200    1.000
    C7       C        0.73220    0.62110    0.43530    1.000
    H3       H        0.69500    0.63400    0.42680    1.000
    C8       C        0.88610    0.54100    0.47770    1.000
    O3       O        0.87530    0.52500    0.50400    1.000
    O4       O        0.96130    0.56900    0.46670    1.000
    N1       N        0.83980    0.68030    0.39700    1.000
    C9       C        0.79400    0.69700    0.37920    1.000
    O5       O        0.71600    0.65600    0.37830    1.000
    H4       H        0.89310    0.70000    0.39250    1.000
    C10      C        0.83160    0.72960    0.35050    1.000
    C11      C        0.78110    0.73540    0.33000    1.000
    C12      C        0.81510    0.76500    0.30410    1.000
    C13      C        0.89960    0.78910    0.29860    1.000
    C14      C        0.95010    0.78330    0.31910    1.000
    C15      C        0.91610    0.75360    0.34500    1.000
    H5       H        0.72510    0.72000    0.33370    1.000
    H6       H        0.78200    0.76900    0.29060    1.000
    H7       H        0.00600    0.79900    0.31540    1.000
    H8       H        0.94950    0.75000    0.35850    1.000
    C16      C        0.93580    0.82080    0.27100    1.000
    C17      C        0.89540    0.77380    0.24600    1.000
    N2       N        0.93040    0.80130    0.22132    1.000
    C18      C        0.01100    0.87970    0.21790    1.000
    N3       N        0.05150    0.92710    0.24260    1.000
    C19      C        0.01660    0.89960    0.26730    1.000
    H9       H        0.04370    0.93080    0.28280    1.000
    H10      H        0.03400    0.89730    0.20070    1.000
    H11      H        0.84420    0.72350    0.24700    1.000
    C20      C        0.77970    0.69840    0.32740    1.000
    C21      C        0.81370    0.72800    0.30150    1.000
    C22      C        0.95140    0.82040    0.32170    1.000
    C23      C        0.91740    0.79060    0.34760    1.000
    H12      H        0.72290    0.65800    0.32930    1.000
    H13      H        0.77900    0.70700    0.28620    1.000
    H14      H        0.00820    0.86100    0.31980    1.000
    H15      H        0.95170    0.81100    0.36290    1.000
    Cu2      Cu       0.17137    0.78443    0.85503    1.000
    C24      C        0.29417    0.87663    0.80493    1.000
    O6       O        0.28967    0.85133    0.83033    1.000
    O7       O        0.23347    0.88733    0.79473    1.000
    C25      C        0.47127    0.96633    0.75473    1.000
    C26      C        0.52767    0.94733    0.76753    1.000
    H16      H        0.57567    0.95533    0.75833    1.000
    C27      C        0.51267    0.91533    0.79423    1.000
    C28      C        0.44067    0.90333    0.80813    1.000
    H17      H        0.42967    0.88233    0.82573    1.000
    C29      C        0.38347    0.92303    0.79533    1.000
    C30      C        0.39887    0.95443    0.76863    1.000
    H18      H        0.36167    0.96733    0.76013    1.000
    C31      C        0.55277    0.87433    0.81103    1.000
    O8       O        0.54197    0.85833    0.83733    1.000
    O9       O        0.62797    0.90233    0.80003    1.000
    N4       N        0.50647    0.01363    0.73033    1.000
    C32      C        0.46067    0.03033    0.71253    1.000
    O10      O        0.38267    0.98933    0.71163    1.000
    H19      H        0.55977    0.03333    0.72583    1.000
    C33      C        0.49827    0.06293    0.68383    1.000
    C34      C        0.44777    0.06873    0.66333    1.000
    C35      C        0.48177    0.09833    0.63743    1.000
    C36      C        0.56627    0.12243    0.63193    1.000
    C37      C        0.61677    0.11663    0.65243    1.000
    C38      C        0.58277    0.08693    0.67833    1.000
    H20      H        0.39177    0.05333    0.66703    1.000
    H21      H        0.44867    0.10233    0.62393    1.000
    H22      H        0.67267    0.13233    0.64873    1.000
    H23      H        0.61617    0.08333    0.69183    1.000
    C39      C        0.60247    0.15413    0.60433    1.000
    C40      C        0.56207    0.10713    0.57933    1.000
    N5       N        0.59707    0.13463    0.55465    1.000
    C41      C        0.67767    0.21303    0.55123    1.000
    N6       N        0.71817    0.26043    0.57593    1.000
    C42      C        0.68327    0.23293    0.60063    1.000
    H24      H        0.71037    0.26413    0.61613    1.000
    H25      H        0.70067    0.23063    0.53403    1.000
    H26      H        0.51087    0.05683    0.58033    1.000
    C43      C        0.44637    0.03173    0.66073    1.000
    C44      C        0.48037    0.06133    0.63483    1.000
    C45      C        0.61807    0.15373    0.65503    1.000
    C46      C        0.58407    0.12393    0.68093    1.000
    H27      H        0.38957    0.99133    0.66263    1.000
    H28      H        0.44567    0.04033    0.61953    1.000
    H29      H        0.67487    0.19433    0.65313    1.000
    H30      H        0.61837    0.14433    0.69623    1.000
    Cu3      Cu       0.83803    0.11777    0.18837    1.000
    C47      C        0.96083    0.20997    0.13827    1.000
    O11      O        0.95633    0.18467    0.16367    1.000
    O12      O        0.90013    0.22067    0.12807    1.000
    C48      C        0.13793    0.29967    0.08807    1.000
    C49      C        0.19433    0.28067    0.10087    1.000
    H31      H        0.24233    0.28867    0.09167    1.000
    C50      C        0.17933    0.24867    0.12757    1.000
    C51      C        0.10733    0.23667    0.14147    1.000
    H32      H        0.09633    0.21567    0.15907    1.000
    C52      C        0.05013    0.25637    0.12867    1.000
    C53      C        0.06553    0.28777    0.10197    1.000
    H33      H        0.02833    0.30067    0.09347    1.000
    C54      C        0.21943    0.20767    0.14437    1.000
    O13      O        0.20863    0.19167    0.17067    1.000
    O14      O        0.29463    0.23567    0.13337    1.000
    N7       N        0.17313    0.34697    0.06367    1.000
    C55      C        0.12733    0.36367    0.04587    1.000
    O15      O        0.04933    0.32267    0.04497    1.000
    H34      H        0.22643    0.36667    0.05917    1.000
    C56      C        0.16493    0.39627    0.01717    1.000
    C57      C        0.11443    0.40207    0.99667    1.000
    C58      C        0.14843    0.43167    0.97077    1.000
    C59      C        0.23293    0.45577    0.96527    1.000
    C60      C        0.28343    0.44997    0.98577    1.000
    C61      C        0.24943    0.42027    0.01167    1.000
    H35      H        0.05843    0.38667    0.00037    1.000
    H36      H        0.11533    0.43567    0.95727    1.000
    H37      H        0.33933    0.46567    0.98207    1.000
    H38      H        0.28283    0.41667    0.02517    1.000
    C62      C        0.26913    0.48747    0.93767    1.000
    C63      C        0.22873    0.44047    0.91267    1.000
    N8       N        0.26373    0.46797    0.88799    1.000
    C64      C        0.34433    0.54637    0.88457    1.000
    N9       N        0.38483    0.59377    0.90927    1.000
    C65      C        0.34993    0.56627    0.93397    1.000
    H39      H        0.37703    0.59747    0.94947    1.000
    H40      H        0.36733    0.56397    0.86737    1.000
    H41      H        0.17753    0.39017    0.91367    1.000
    C66      C        0.11303    0.36507    0.99407    1.000
    C67      C        0.14703    0.39467    0.96817    1.000
    C68      C        0.28473    0.48707    0.98837    1.000
    C69      C        0.25073    0.45727    0.01427    1.000
    H42      H        0.05623    0.32467    0.99597    1.000
    H43      H        0.11233    0.37367    0.95287    1.000
    H44      H        0.34153    0.52767    0.98647    1.000
    H45      H        0.28503    0.47767    0.02957    1.000
    Cu4      Cu       0.54890    0.05360    0.52170    1.000
    C70      C        0.45670    0.08420    0.47160    1.000
    O16      O        0.48200    0.10500    0.49700    1.000
    O17      O        0.44600    0.01280    0.46140    1.000
    C71      C        0.36700    0.17160    0.42140    1.000
    C72      C        0.38600    0.24700    0.43420    1.000
    H46      H        0.37800    0.28700    0.42500    1.000
    C73      C        0.41800    0.26400    0.46090    1.000
    C74      C        0.43000    0.20400    0.47480    1.000
    H47      H        0.45100    0.21400    0.49240    1.000
    C75      C        0.41030    0.12710    0.46200    1.000
    C76      C        0.37890    0.11110    0.43530    1.000
    H48      H        0.36600    0.06100    0.42680    1.000
    C77      C        0.45900    0.34510    0.47770    1.000
    O18      O        0.47500    0.35030    0.50400    1.000
    O19      O        0.43100    0.39230    0.46670    1.000
    N10      N        0.31970    0.15950    0.39700    1.000
    C78      C        0.30300    0.09700    0.37920    1.000
    O20      O        0.34400    0.06000    0.37830    1.000
    H49      H        0.30000    0.19310    0.39250    1.000
    C79      C        0.27040    0.10200    0.35050    1.000
    C80      C        0.26460    0.04570    0.33000    1.000
    C81      C        0.23500    0.05010    0.30410    1.000
    C82      C        0.21090    0.11050    0.29860    1.000
    C83      C        0.21670    0.16680    0.31910    1.000
    C84      C        0.24640    0.16250    0.34500    1.000
    H50      H        0.28000    0.00510    0.33370    1.000
    H51      H        0.23100    0.01300    0.29060    1.000
    H52      H        0.20100    0.20700    0.31540    1.000
    H53      H        0.25000    0.19950    0.35850    1.000
    C85      C        0.17920    0.11500    0.27100    1.000
    C86      C        0.22620    0.12160    0.24600    1.000
    N11      N        0.19870    0.12910    0.22132    1.000
    C87      C        0.12030    0.13130    0.21790    1.000
    N12      N        0.07290    0.12440    0.24260    1.000
    C88      C        0.10040    0.11700    0.26730    1.000
    H54      H        0.06920    0.11290    0.28280    1.000
    H55      H        0.10270    0.13670    0.20070    1.000
    H56      H        0.27650    0.12070    0.24700    1.000
    C89      C        0.30160    0.08130    0.32740    1.000
    C90      C        0.27200    0.08570    0.30150    1.000
    C91      C        0.17960    0.13100    0.32170    1.000
    C92      C        0.20940    0.12680    0.34760    1.000
    H57      H        0.34200    0.06490    0.32930    1.000
    H58      H        0.29300    0.07200    0.28620    1.000
    H59      H        0.13900    0.14720    0.31980    1.000
    H60      H        0.18900    0.14070    0.36290    1.000
    Cu5      Cu       0.21557    0.38693    0.85503    1.000
    C93      C        0.12337    0.41753    0.80493    1.000
    O21      O        0.14867    0.43833    0.83033    1.000
    O22      O        0.11267    0.34613    0.79473    1.000
    C94      C        0.03367    0.50493    0.75473    1.000
    C95      C        0.05267    0.58033    0.76753    1.000
    H61      H        0.04467    0.62033    0.75833    1.000
    C96      C        0.08467    0.59733    0.79423    1.000
    C97      C        0.09667    0.53733    0.80813    1.000
    H62      H        0.11767    0.54733    0.82573    1.000
    C98      C        0.07697    0.46043    0.79533    1.000
    C99      C        0.04557    0.44443    0.76863    1.000
    H63      H        0.03267    0.39433    0.76013    1.000
    C100     C        0.12567    0.67843    0.81103    1.000
    O23      O        0.14167    0.68363    0.83733    1.000
    O24      O        0.09767    0.72563    0.80003    1.000
    N13      N        0.98637    0.49283    0.73033    1.000
    C101     C        0.96967    0.43033    0.71253    1.000
    O25      O        0.01067    0.39333    0.71163    1.000
    H64      H        0.96667    0.52643    0.72583    1.000
    C102     C        0.93707    0.43533    0.68383    1.000
    C103     C        0.93127    0.37903    0.66333    1.000
    C104     C        0.90167    0.38343    0.63743    1.000
    C105     C        0.87757    0.44383    0.63193    1.000
    C106     C        0.88337    0.50013    0.65243    1.000
    C107     C        0.91307    0.49583    0.67833    1.000
    H65      H        0.94667    0.33843    0.66703    1.000
    H66      H        0.89767    0.34633    0.62393    1.000
    H67      H        0.86767    0.54033    0.64873    1.000
    H68      H        0.91667    0.53283    0.69183    1.000
    C108     C        0.84587    0.44833    0.60433    1.000
    C109     C        0.89287    0.45493    0.57933    1.000
    N14      N        0.86537    0.46243    0.55465    1.000
    C110     C        0.78697    0.46463    0.55123    1.000
    N15      N        0.73957    0.45773    0.57593    1.000
    C111     C        0.76707    0.45033    0.60063    1.000
    H69      H        0.73587    0.44623    0.61613    1.000
    H70      H        0.76937    0.47003    0.53403    1.000
    H71      H        0.94317    0.45403    0.58033    1.000
    C112     C        0.96827    0.41463    0.66073    1.000
    C113     C        0.93867    0.41903    0.63483    1.000
    C114     C        0.84627    0.46433    0.65503    1.000
    C115     C        0.87607    0.46013    0.68093    1.000
    H72      H        0.00867    0.39823    0.66263    1.000
    H73      H        0.95967    0.40533    0.61953    1.000
    H74      H        0.80567    0.48053    0.65313    1.000
    H75      H        0.85567    0.47403    0.69623    1.000
    Cu6      Cu       0.88223    0.72027    0.18837    1.000
    C116     C        0.79003    0.75087    0.13827    1.000
    O26      O        0.81533    0.77167    0.16367    1.000
    O27      O        0.77933    0.67947    0.12807    1.000
    C117     C        0.70033    0.83827    0.08807    1.000
    C118     C        0.71933    0.91367    0.10087    1.000
    H76      H        0.71133    0.95367    0.09167    1.000
    C119     C        0.75133    0.93067    0.12757    1.000
    C120     C        0.76333    0.87067    0.14147    1.000
    H77      H        0.78433    0.88067    0.15907    1.000
    C121     C        0.74363    0.79377    0.12867    1.000
    C122     C        0.71223    0.77777    0.10197    1.000
    H78      H        0.69933    0.72767    0.09347    1.000
    C123     C        0.79233    0.01177    0.14437    1.000
    O28      O        0.80833    0.01697    0.17067    1.000
    O29      O        0.76433    0.05897    0.13337    1.000
    N16      N        0.65303    0.82617    0.06367    1.000
    C124     C        0.63633    0.76367    0.04587    1.000
    O30      O        0.67733    0.72667    0.04497    1.000
    H79      H        0.63333    0.85977    0.05917    1.000
    C125     C        0.60373    0.76867    0.01717    1.000
    C126     C        0.59793    0.71237    0.99667    1.000
    C127     C        0.56833    0.71677    0.97077    1.000
    C128     C        0.54423    0.77717    0.96527    1.000
    C129     C        0.55003    0.83347    0.98577    1.000
    C130     C        0.57973    0.82917    0.01167    1.000
    H80      H        0.61333    0.67177    0.00037    1.000
    H81      H        0.56433    0.67967    0.95727    1.000
    H82      H        0.53433    0.87367    0.98207    1.000
    H83      H        0.58333    0.86617    0.02517    1.000
    C131     C        0.51253    0.78167    0.93767    1.000
    C132     C        0.55953    0.78827    0.91267    1.000
    N17      N        0.53203    0.79577    0.88799    1.000
    C133     C        0.45363    0.79797    0.88457    1.000
    N18      N        0.40623    0.79107    0.90927    1.000
    C134     C        0.43373    0.78367    0.93397    1.000
    H84      H        0.40253    0.77957    0.94947    1.000
    H85      H        0.43603    0.80337    0.86737    1.000
    H86      H        0.60983    0.78737    0.91367    1.000
    C135     C        0.63493    0.74797    0.99407    1.000
    C136     C        0.60533    0.75237    0.96817    1.000
    C137     C        0.51293    0.79767    0.98837    1.000
    C138     C        0.54273    0.79347    0.01427    1.000
    H87      H        0.67533    0.73157    0.99597    1.000
    H88      H        0.62633    0.73867    0.95287    1.000
    H89      H        0.47233    0.81387    0.98647    1.000
    H90      H        0.52233    0.80737    0.02957    1.000
    Cu7      Cu       0.94640    0.49530    0.52170    1.000
    C139     C        0.91580    0.37250    0.47160    1.000
    O31      O        0.89500    0.37700    0.49700    1.000
    O32      O        0.98720    0.43320    0.46140    1.000
    C140     C        0.82840    0.19540    0.42140    1.000
    C141     C        0.75300    0.13900    0.43420    1.000
    H91      H        0.71300    0.09100    0.42500    1.000
    C142     C        0.73600    0.15400    0.46090    1.000
    C143     C        0.79600    0.22600    0.47480    1.000
    H92      H        0.78600    0.23700    0.49240    1.000
    C144     C        0.87290    0.28320    0.46200    1.000
    C145     C        0.88890    0.26780    0.43530    1.000
    H93      H        0.93900    0.30500    0.42680    1.000
    C146     C        0.65490    0.11390    0.47770    1.000
    O33      O        0.64970    0.12470    0.50400    1.000
    O34      O        0.60770    0.03870    0.46670    1.000
    N19      N        0.84050    0.16020    0.39700    1.000
    C147     C        0.90300    0.20600    0.37920    1.000
    O35      O        0.94000    0.28400    0.37830    1.000
    H94      H        0.80690    0.10690    0.39250    1.000
    C148     C        0.89800    0.16840    0.35050    1.000
    C149     C        0.95430    0.21890    0.33000    1.000
    C150     C        0.94990    0.18490    0.30410    1.000
    C151     C        0.88950    0.10040    0.29860    1.000
    C152     C        0.83320    0.04990    0.31910    1.000
    C153     C        0.83750    0.08390    0.34500    1.000
    H95      H        0.99490    0.27490    0.33370    1.000
    H96      H        0.98700    0.21800    0.29060    1.000
    H97      H        0.79300    0.99400    0.31540    1.000
    H98      H        0.80050    0.05050    0.35850    1.000
    C154     C        0.88500    0.06420    0.27100    1.000
    C155     C        0.87840    0.10460    0.24600    1.000
    N20      N        0.87090    0.06960    0.22132    1.000
    C156     C        0.86870    0.98900    0.21790    1.000
    N21      N        0.87560    0.94850    0.24260    1.000
    C157     C        0.88300    0.98340    0.26730    1.000
    H99      H        0.88710    0.95630    0.28280    1.000
    H100     H        0.86330    0.96600    0.20070    1.000
    H101     H        0.87930    0.15580    0.24700    1.000
    C158     C        0.91870    0.22030    0.32740    1.000
    C159     C        0.91430    0.18630    0.30150    1.000
    C160     C        0.86900    0.04860    0.32170    1.000
    C161     C        0.87320    0.08260    0.34760    1.000
    H102     H        0.93510    0.27710    0.32930    1.000
    H103     H        0.92800    0.22100    0.28620    1.000
    H104     H        0.85280    0.99180    0.31980    1.000
    H105     H        0.85930    0.04830    0.36290    1.000
    Cu8      Cu       0.61307    0.82863    0.85503    1.000
    C162     C        0.58247    0.70583    0.80493    1.000
    O36      O        0.56167    0.71033    0.83033    1.000
    O37      O        0.65387    0.76653    0.79473    1.000
    C163     C        0.49507    0.52873    0.75473    1.000
    C164     C        0.41967    0.47233    0.76753    1.000
    H106     H        0.37967    0.42433    0.75833    1.000
    C165     C        0.40267    0.48733    0.79423    1.000
    C166     C        0.46267    0.55933    0.80813    1.000
    H107     H        0.45267    0.57033    0.82573    1.000
    C167     C        0.53957    0.61653    0.79533    1.000
    C168     C        0.55557    0.60113    0.76863    1.000
    H108     H        0.60567    0.63833    0.76013    1.000
    C169     C        0.32157    0.44723    0.81103    1.000
    O38      O        0.31637    0.45803    0.83733    1.000
    O39      O        0.27437    0.37203    0.80003    1.000
    N22      N        0.50717    0.49353    0.73033    1.000
    C170     C        0.56967    0.53933    0.71253    1.000
    O40      O        0.60667    0.61733    0.71163    1.000
    H109     H        0.47357    0.44023    0.72583    1.000
    C171     C        0.56467    0.50173    0.68383    1.000
    C172     C        0.62097    0.55223    0.66333    1.000
    C173     C        0.61657    0.51823    0.63743    1.000
    C174     C        0.55617    0.43373    0.63193    1.000
    C175     C        0.49987    0.38323    0.65243    1.000
    C176     C        0.50417    0.41723    0.67833    1.000
    H110     H        0.66157    0.60823    0.66703    1.000
    H111     H        0.65367    0.55133    0.62393    1.000
    H112     H        0.45967    0.32733    0.64873    1.000
    H113     H        0.46717    0.38383    0.69183    1.000
    C177     C        0.55167    0.39753    0.60433    1.000
    C178     C        0.54507    0.43793    0.57933    1.000
    N23      N        0.53757    0.40293    0.55465    1.000
    C179     C        0.53537    0.32233    0.55123    1.000
    N24      N        0.54227    0.28183    0.57593    1.000
    C180     C        0.54967    0.31673    0.60063    1.000
    H114     H        0.55377    0.28963    0.61613    1.000
    H115     H        0.52997    0.29933    0.53403    1.000
    H116     H        0.54597    0.48913    0.58033    1.000
    C181     C        0.58537    0.55363    0.66073    1.000
    C182     C        0.58097    0.51963    0.63483    1.000
    C183     C        0.53567    0.38193    0.65503    1.000
    C184     C        0.53987    0.41593    0.68093    1.000
    H117     H        0.60177    0.61043    0.66263    1.000
    H118     H        0.59467    0.55433    0.61953    1.000
    H119     H        0.51947    0.32513    0.65313    1.000
    H120     H        0.52597    0.38163    0.69623    1.000
    Cu9      Cu       0.27973    0.16197    0.18837    1.000
    C185     C        0.24913    0.03917    0.13827    1.000
    O41      O        0.22833    0.04367    0.16367    1.000
    O42      O        0.32053    0.09987    0.12807    1.000
    C186     C        0.16173    0.86207    0.08807    1.000
    C187     C        0.08633    0.80567    0.10087    1.000
    H121     H        0.04633    0.75767    0.09167    1.000
    C188     C        0.06933    0.82067    0.12757    1.000
    C189     C        0.12933    0.89267    0.14147    1.000
    H122     H        0.11933    0.90367    0.15907    1.000
    C190     C        0.20623    0.94987    0.12867    1.000
    C191     C        0.22223    0.93447    0.10197    1.000
    H123     H        0.27233    0.97167    0.09347    1.000
    C192     C        0.98823    0.78057    0.14437    1.000
    O43      O        0.98303    0.79137    0.17067    1.000
    O44      O        0.94103    0.70537    0.13337    1.000
    N25      N        0.17383    0.82687    0.06367    1.000
    C193     C        0.23633    0.87267    0.04587    1.000
    O45      O        0.27333    0.95067    0.04497    1.000
    H124     H        0.14023    0.77357    0.05917    1.000
    C194     C        0.23133    0.83507    0.01717    1.000
    C195     C        0.28763    0.88557    0.99667    1.000
    C196     C        0.28323    0.85157    0.97077    1.000
    C197     C        0.22283    0.76707    0.96527    1.000
    C198     C        0.16653    0.71657    0.98577    1.000
    C199     C        0.17083    0.75057    0.01167    1.000
    H125     H        0.32823    0.94157    0.00037    1.000
    H126     H        0.32033    0.88467    0.95727    1.000
    H127     H        0.12633    0.66067    0.98207    1.000
    H128     H        0.13383    0.71717    0.02517    1.000
    C200     C        0.21833    0.73087    0.93767    1.000
    C201     C        0.21173    0.77127    0.91267    1.000
    N26      N        0.20423    0.73627    0.88799    1.000
    C202     C        0.20203    0.65567    0.88457    1.000
    N27      N        0.20893    0.61517    0.90927    1.000
    C203     C        0.21633    0.65007    0.93397    1.000
    H129     H        0.22043    0.62297    0.94947    1.000
    H130     H        0.19663    0.63267    0.86737    1.000
    H131     H        0.21263    0.82247    0.91367    1.000
    C204     C        0.25203    0.88697    0.99407    1.000
    C205     C        0.24763    0.85297    0.96817    1.000
    C206     C        0.20233    0.71527    0.98837    1.000
    C207     C        0.20653    0.74927    0.01427    1.000
    H132     H        0.26843    0.94377    0.99597    1.000
    H133     H        0.26133    0.88767    0.95287    1.000
    H134     H        0.18613    0.65847    0.98647    1.000
    H135     H        0.19263    0.71497    0.02957    1.000
    Cu10     Cu       0.45110    0.50470    0.47830    1.000
    C208     C        0.54330    0.62750    0.52840    1.000
    O46      O        0.51800    0.62300    0.50300    1.000
    O47      O        0.55400    0.56680    0.53860    1.000
    C209     C        0.63300    0.80460    0.57860    1.000
    C210     C        0.61400    0.86100    0.56580    1.000
    H136     H        0.62200    0.90900    0.57500    1.000
    C211     C        0.58200    0.84600    0.53910    1.000
    C212     C        0.57000    0.77400    0.52520    1.000
    H137     H        0.54900    0.76300    0.50760    1.000
    C213     C        0.58970    0.71680    0.53800    1.000
    C214     C        0.62110    0.73220    0.56470    1.000
    H138     H        0.63400    0.69500    0.57320    1.000
    C215     C        0.54100    0.88610    0.52230    1.000
    O48      O        0.52500    0.87530    0.49600    1.000
    O49      O        0.56900    0.96130    0.53330    1.000
    N28      N        0.68030    0.83980    0.60300    1.000
    C216     C        0.69700    0.79400    0.62080    1.000
    O50      O        0.65600    0.71600    0.62170    1.000
    H139     H        0.70000    0.89310    0.60750    1.000
    C217     C        0.72960    0.83160    0.64950    1.000
    C218     C        0.73540    0.78110    0.67000    1.000
    C219     C        0.76500    0.81510    0.69590    1.000
    C220     C        0.78910    0.89960    0.70140    1.000
    C221     C        0.78330    0.95010    0.68090    1.000
    C222     C        0.75360    0.91610    0.65500    1.000
    H140     H        0.72000    0.72510    0.66630    1.000
    H141     H        0.76900    0.78200    0.70940    1.000
    H142     H        0.79900    0.00600    0.68460    1.000
    H143     H        0.75000    0.94950    0.64150    1.000
    C223     C        0.82080    0.93580    0.72900    1.000
    C224     C        0.77380    0.89540    0.75400    1.000
    N29      N        0.80130    0.93040    0.77868    1.000
    C225     C        0.87970    0.01100    0.78210    1.000
    N30      N        0.92710    0.05150    0.75740    1.000
    C226     C        0.89960    0.01660    0.73270    1.000
    H144     H        0.93080    0.04370    0.71720    1.000
    H145     H        0.89730    0.03400    0.79930    1.000
    H146     H        0.72350    0.84420    0.75300    1.000
    C227     C        0.69840    0.77970    0.67260    1.000
    C228     C        0.72800    0.81370    0.69850    1.000
    C229     C        0.82040    0.95140    0.67830    1.000
    C230     C        0.79060    0.91740    0.65240    1.000
    H147     H        0.65800    0.72290    0.67070    1.000
    H148     H        0.70700    0.77900    0.71380    1.000
    H149     H        0.86100    0.00820    0.68020    1.000
    H150     H        0.81100    0.95170    0.63710    1.000
    Cu11     Cu       0.11777    0.83803    0.81163    1.000
    C231     C        0.20997    0.96083    0.86173    1.000
    O51      O        0.18467    0.95633    0.83633    1.000
    O52      O        0.22067    0.90013    0.87193    1.000
    C232     C        0.29967    0.13793    0.91193    1.000
    C233     C        0.28067    0.19433    0.89913    1.000
    H151     H        0.28867    0.24233    0.90833    1.000
    C234     C        0.24867    0.17933    0.87243    1.000
    C235     C        0.23667    0.10733    0.85853    1.000
    H152     H        0.21567    0.09633    0.84093    1.000
    C236     C        0.25637    0.05013    0.87133    1.000
    C237     C        0.28777    0.06553    0.89803    1.000
    H153     H        0.30067    0.02833    0.90653    1.000
    C238     C        0.20767    0.21943    0.85563    1.000
    O53      O        0.19167    0.20863    0.82933    1.000
    O54      O        0.23567    0.29463    0.86663    1.000
    N31      N        0.34697    0.17313    0.93633    1.000
    C239     C        0.36367    0.12733    0.95413    1.000
    O55      O        0.32267    0.04933    0.95503    1.000
    H154     H        0.36667    0.22643    0.94083    1.000
    C240     C        0.39627    0.16493    0.98283    1.000
    C241     C        0.40207    0.11443    0.00333    1.000
    C242     C        0.43167    0.14843    0.02923    1.000
    C243     C        0.45577    0.23293    0.03473    1.000
    C244     C        0.44997    0.28343    0.01423    1.000
    C245     C        0.42027    0.24943    0.98833    1.000
    H155     H        0.38667    0.05843    0.99963    1.000
    H156     H        0.43567    0.11533    0.04273    1.000
    H157     H        0.46567    0.33933    0.01793    1.000
    H158     H        0.41667    0.28283    0.97483    1.000
    C246     C        0.48747    0.26913    0.06233    1.000
    C247     C        0.44047    0.22873    0.08733    1.000
    N32      N        0.46797    0.26373    0.11201    1.000
    C248     C        0.54637    0.34433    0.11543    1.000
    N33      N        0.59377    0.38483    0.09073    1.000
    C249     C        0.56627    0.34993    0.06603    1.000
    H159     H        0.59747    0.37703    0.05053    1.000
    H160     H        0.56397    0.36733    0.13263    1.000
    H161     H        0.39017    0.17753    0.08633    1.000
    C250     C        0.36507    0.11303    0.00593    1.000
    C251     C        0.39467    0.14703    0.03183    1.000
    C252     C        0.48707    0.28473    0.01163    1.000
    C253     C        0.45727    0.25073    0.98573    1.000
    H162     H        0.32467    0.05623    0.00403    1.000
    H163     H        0.37367    0.11233    0.04713    1.000
    H164     H        0.52767    0.34153    0.01353    1.000
    H165     H        0.47767    0.28503    0.97043    1.000
    Cu12     Cu       0.78443    0.17137    0.14497    1.000
    C254     C        0.87663    0.29417    0.19507    1.000
    O56      O        0.85133    0.28967    0.16967    1.000
    O57      O        0.88733    0.23347    0.20527    1.000
    C255     C        0.96633    0.47127    0.24527    1.000
    C256     C        0.94733    0.52767    0.23247    1.000
    H166     H        0.95533    0.57567    0.24167    1.000
    C257     C        0.91533    0.51267    0.20577    1.000
    C258     C        0.90333    0.44067    0.19187    1.000
    H167     H        0.88233    0.42967    0.17427    1.000
    C259     C        0.92303    0.38347    0.20467    1.000
    C260     C        0.95443    0.39887    0.23137    1.000
    H168     H        0.96733    0.36167    0.23987    1.000
    C261     C        0.87433    0.55277    0.18897    1.000
    O58      O        0.85833    0.54197    0.16267    1.000
    O59      O        0.90233    0.62797    0.19997    1.000
    N34      N        0.01363    0.50647    0.26967    1.000
    C262     C        0.03033    0.46067    0.28747    1.000
    O60      O        0.98933    0.38267    0.28837    1.000
    H169     H        0.03333    0.55977    0.27417    1.000
    C263     C        0.06293    0.49827    0.31617    1.000
    C264     C        0.06873    0.44777    0.33667    1.000
    C265     C        0.09833    0.48177    0.36257    1.000
    C266     C        0.12243    0.56627    0.36807    1.000
    C267     C        0.11663    0.61677    0.34757    1.000
    C268     C        0.08693    0.58277    0.32167    1.000
    H170     H        0.05333    0.39177    0.33297    1.000
    H171     H        0.10233    0.44867    0.37607    1.000
    H172     H        0.13233    0.67267    0.35127    1.000
    H173     H        0.08333    0.61617    0.30817    1.000
    C269     C        0.15413    0.60247    0.39567    1.000
    C270     C        0.10713    0.56207    0.42067    1.000
    N35      N        0.13463    0.59707    0.44535    1.000
    C271     C        0.21303    0.67767    0.44877    1.000
    N36      N        0.26043    0.71817    0.42407    1.000
    C272     C        0.23293    0.68327    0.39937    1.000
    H174     H        0.26413    0.71037    0.38387    1.000
    H175     H        0.23063    0.70067    0.46597    1.000
    H176     H        0.05683    0.51087    0.41967    1.000
    C273     C        0.03173    0.44637    0.33927    1.000
    C274     C        0.06133    0.48037    0.36517    1.000
    C275     C        0.15373    0.61807    0.34497    1.000
    C276     C        0.12393    0.58407    0.31907    1.000
    H177     H        0.99133    0.38957    0.33737    1.000
    H178     H        0.04033    0.44567    0.38047    1.000
    H179     H        0.19433    0.67487    0.34687    1.000
    H180     H        0.14433    0.61837    0.30377    1.000
    Cu13     Cu       0.05360    0.54890    0.47830    1.000
    C277     C        0.08420    0.45670    0.52840    1.000
    O61      O        0.10500    0.48200    0.50300    1.000
    O62      O        0.01280    0.44600    0.53860    1.000
    C278     C        0.17160    0.36700    0.57860    1.000
    C279     C        0.24700    0.38600    0.56580    1.000
    H181     H        0.28700    0.37800    0.57500    1.000
    C280     C        0.26400    0.41800    0.53910    1.000
    C281     C        0.20400    0.43000    0.52520    1.000
    H182     H        0.21400    0.45100    0.50760    1.000
    C282     C        0.12710    0.41030    0.53800    1.000
    C283     C        0.11110    0.37890    0.56470    1.000
    H183     H        0.06100    0.36600    0.57320    1.000
    C284     C        0.34510    0.45900    0.52230    1.000
    O63      O        0.35030    0.47500    0.49600    1.000
    O64      O        0.39230    0.43100    0.53330    1.000
    N37      N        0.15950    0.31970    0.60300    1.000
    C285     C        0.09700    0.30300    0.62080    1.000
    O65      O        0.06000    0.34400    0.62170    1.000
    H184     H        0.19310    0.30000    0.60750    1.000
    C286     C        0.10200    0.27040    0.64950    1.000
    C287     C        0.04570    0.26460    0.67000    1.000
    C288     C        0.05010    0.23500    0.69590    1.000
    C289     C        0.11050    0.21090    0.70140    1.000
    C290     C        0.16680    0.21670    0.68090    1.000
    C291     C        0.16250    0.24640    0.65500    1.000
    H185     H        0.00510    0.28000    0.66630    1.000
    H186     H        0.01300    0.23100    0.70940    1.000
    H187     H        0.20700    0.20100    0.68460    1.000
    H188     H        0.19950    0.25000    0.64150    1.000
    C292     C        0.11500    0.17920    0.72900    1.000
    C293     C        0.12160    0.22620    0.75400    1.000
    N38      N        0.12910    0.19870    0.77868    1.000
    C294     C        0.13130    0.12030    0.78210    1.000
    N39      N        0.12440    0.07290    0.75740    1.000
    C295     C        0.11700    0.10040    0.73270    1.000
    H189     H        0.11290    0.06920    0.71720    1.000
    H190     H        0.13670    0.10270    0.79930    1.000
    H191     H        0.12070    0.27650    0.75300    1.000
    C296     C        0.08130    0.30160    0.67260    1.000
    C297     C        0.08570    0.27200    0.69850    1.000
    C298     C        0.13100    0.17960    0.67830    1.000
    C299     C        0.12680    0.20940    0.65240    1.000
    H192     H        0.06490    0.34200    0.67070    1.000
    H193     H        0.07200    0.29300    0.71380    1.000
    H194     H        0.14720    0.13900    0.68020    1.000
    H195     H        0.14070    0.18900    0.63710    1.000
    Cu14     Cu       0.72027    0.88223    0.81163    1.000
    C300     C        0.75087    0.79003    0.86173    1.000
    O66      O        0.77167    0.81533    0.83633    1.000
    O67      O        0.67947    0.77933    0.87193    1.000
    C301     C        0.83827    0.70033    0.91193    1.000
    C302     C        0.91367    0.71933    0.89913    1.000
    H196     H        0.95367    0.71133    0.90833    1.000
    C303     C        0.93067    0.75133    0.87243    1.000
    C304     C        0.87067    0.76333    0.85853    1.000
    H197     H        0.88067    0.78433    0.84093    1.000
    C305     C        0.79377    0.74363    0.87133    1.000
    C306     C        0.77777    0.71223    0.89803    1.000
    H198     H        0.72767    0.69933    0.90653    1.000
    C307     C        0.01177    0.79233    0.85563    1.000
    O68      O        0.01697    0.80833    0.82933    1.000
    O69      O        0.05897    0.76433    0.86663    1.000
    N40      N        0.82617    0.65303    0.93633    1.000
    C308     C        0.76367    0.63633    0.95413    1.000
    O70      O        0.72667    0.67733    0.95503    1.000
    H199     H        0.85977    0.63333    0.94083    1.000
    C309     C        0.76867    0.60373    0.98283    1.000
    C310     C        0.71237    0.59793    0.00333    1.000
    C311     C        0.71677    0.56833    0.02923    1.000
    C312     C        0.77717    0.54423    0.03473    1.000
    C313     C        0.83347    0.55003    0.01423    1.000
    C314     C        0.82917    0.57973    0.98833    1.000
    H200     H        0.67177    0.61333    0.99963    1.000
    H201     H        0.67967    0.56433    0.04273    1.000
    H202     H        0.87367    0.53433    0.01793    1.000
    H203     H        0.86617    0.58333    0.97483    1.000
    C315     C        0.78167    0.51253    0.06233    1.000
    C316     C        0.78827    0.55953    0.08733    1.000
    N41      N        0.79577    0.53203    0.11201    1.000
    C317     C        0.79797    0.45363    0.11543    1.000
    N42      N        0.79107    0.40623    0.09073    1.000
    C318     C        0.78367    0.43373    0.06603    1.000
    H204     H        0.77957    0.40253    0.05053    1.000
    H205     H        0.80337    0.43603    0.13263    1.000
    H206     H        0.78737    0.60983    0.08633    1.000
    C319     C        0.74797    0.63493    0.00593    1.000
    C320     C        0.75237    0.60533    0.03183    1.000
    C321     C        0.79767    0.51293    0.01163    1.000
    C322     C        0.79347    0.54273    0.98573    1.000
    H207     H        0.73157    0.67533    0.00403    1.000
    H208     H        0.73867    0.62633    0.04713    1.000
    H209     H        0.81387    0.47233    0.01353    1.000
    H210     H        0.80737    0.52233    0.97043    1.000
    Cu15     Cu       0.38693    0.21557    0.14497    1.000
    C323     C        0.41753    0.12337    0.19507    1.000
    O71      O        0.43833    0.14867    0.16967    1.000
    O72      O        0.34613    0.11267    0.20527    1.000
    C324     C        0.50493    0.03367    0.24527    1.000
    C325     C        0.58033    0.05267    0.23247    1.000
    H211     H        0.62033    0.04467    0.24167    1.000
    C326     C        0.59733    0.08467    0.20577    1.000
    C327     C        0.53733    0.09667    0.19187    1.000
    H212     H        0.54733    0.11767    0.17427    1.000
    C328     C        0.46043    0.07697    0.20467    1.000
    C329     C        0.44443    0.04557    0.23137    1.000
    H213     H        0.39433    0.03267    0.23987    1.000
    C330     C        0.67843    0.12567    0.18897    1.000
    O73      O        0.68363    0.14167    0.16267    1.000
    O74      O        0.72563    0.09767    0.19997    1.000
    N43      N        0.49283    0.98637    0.26967    1.000
    C331     C        0.43033    0.96967    0.28747    1.000
    O75      O        0.39333    0.01067    0.28837    1.000
    H214     H        0.52643    0.96667    0.27417    1.000
    C332     C        0.43533    0.93707    0.31617    1.000
    C333     C        0.37903    0.93127    0.33667    1.000
    C334     C        0.38343    0.90167    0.36257    1.000
    C335     C        0.44383    0.87757    0.36807    1.000
    C336     C        0.50013    0.88337    0.34757    1.000
    C337     C        0.49583    0.91307    0.32167    1.000
    H215     H        0.33843    0.94667    0.33297    1.000
    H216     H        0.34633    0.89767    0.37607    1.000
    H217     H        0.54033    0.86767    0.35127    1.000
    H218     H        0.53283    0.91667    0.30817    1.000
    C338     C        0.44833    0.84587    0.39567    1.000
    C339     C        0.45493    0.89287    0.42067    1.000
    N44      N        0.46243    0.86537    0.44535    1.000
    C340     C        0.46463    0.78697    0.44877    1.000
    N45      N        0.45773    0.73957    0.42407    1.000
    C341     C        0.45033    0.76707    0.39937    1.000
    H219     H        0.44623    0.73587    0.38387    1.000
    H220     H        0.47003    0.76937    0.46597    1.000
    H221     H        0.45403    0.94317    0.41967    1.000
    C342     C        0.41463    0.96827    0.33927    1.000
    C343     C        0.41903    0.93867    0.36517    1.000
    C344     C        0.46433    0.84627    0.34497    1.000
    C345     C        0.46013    0.87607    0.31907    1.000
    H222     H        0.39823    0.00867    0.33737    1.000
    H223     H        0.40533    0.95967    0.38047    1.000
    H224     H        0.48053    0.80567    0.34687    1.000
    H225     H        0.47403    0.85567    0.30377    1.000
    Cu16     Cu       0.49530    0.94640    0.47830    1.000
    C346     C        0.37250    0.91580    0.52840    1.000
    O76      O        0.37700    0.89500    0.50300    1.000
    O77      O        0.43320    0.98720    0.53860    1.000
    C347     C        0.19540    0.82840    0.57860    1.000
    C348     C        0.13900    0.75300    0.56580    1.000
    H226     H        0.09100    0.71300    0.57500    1.000
    C349     C        0.15400    0.73600    0.53910    1.000
    C350     C        0.22600    0.79600    0.52520    1.000
    H227     H        0.23700    0.78600    0.50760    1.000
    C351     C        0.28320    0.87290    0.53800    1.000
    C352     C        0.26780    0.88890    0.56470    1.000
    H228     H        0.30500    0.93900    0.57320    1.000
    C353     C        0.11390    0.65490    0.52230    1.000
    O78      O        0.12470    0.64970    0.49600    1.000
    O79      O        0.03870    0.60770    0.53330    1.000
    N46      N        0.16020    0.84050    0.60300    1.000
    C354     C        0.20600    0.90300    0.62080    1.000
    O80      O        0.28400    0.94000    0.62170    1.000
    H229     H        0.10690    0.80690    0.60750    1.000
    C355     C        0.16840    0.89800    0.64950    1.000
    C356     C        0.21890    0.95430    0.67000    1.000
    C357     C        0.18490    0.94990    0.69590    1.000
    C358     C        0.10040    0.88950    0.70140    1.000
    C359     C        0.04990    0.83320    0.68090    1.000
    C360     C        0.08390    0.83750    0.65500    1.000
    H230     H        0.27490    0.99490    0.66630    1.000
    H231     H        0.21800    0.98700    0.70940    1.000
    H232     H        0.99400    0.79300    0.68460    1.000
    H233     H        0.05050    0.80050    0.64150    1.000
    C361     C        0.06420    0.88500    0.72900    1.000
    C362     C        0.10460    0.87840    0.75400    1.000
    N47      N        0.06960    0.87090    0.77868    1.000
    C363     C        0.98900    0.86870    0.78210    1.000
    N48      N        0.94850    0.87560    0.75740    1.000
    C364     C        0.98340    0.88300    0.73270    1.000
    H234     H        0.95630    0.88710    0.71720    1.000
    H235     H        0.96600    0.86330    0.79930    1.000
    H236     H        0.15580    0.87930    0.75300    1.000
    C365     C        0.22030    0.91870    0.67260    1.000
    C366     C        0.18630    0.91430    0.69850    1.000
    C367     C        0.04860    0.86900    0.67830    1.000
    C368     C        0.08260    0.87320    0.65240    1.000
    H237     H        0.27710    0.93510    0.67070    1.000
    H238     H        0.22100    0.92800    0.71380    1.000
    H239     H        0.99180    0.85280    0.68020    1.000
    H240     H        0.04830    0.85930    0.63710    1.000
    Cu17     Cu       0.16197    0.27973    0.81163    1.000
    C369     C        0.03917    0.24913    0.86173    1.000
    O81      O        0.04367    0.22833    0.83633    1.000
    O82      O        0.09987    0.32053    0.87193    1.000
    C370     C        0.86207    0.16173    0.91193    1.000
    C371     C        0.80567    0.08633    0.89913    1.000
    H241     H        0.75767    0.04633    0.90833    1.000
    C372     C        0.82067    0.06933    0.87243    1.000
    C373     C        0.89267    0.12933    0.85853    1.000
    H242     H        0.90367    0.11933    0.84093    1.000
    C374     C        0.94987    0.20623    0.87133    1.000
    C375     C        0.93447    0.22223    0.89803    1.000
    H243     H        0.97167    0.27233    0.90653    1.000
    C376     C        0.78057    0.98823    0.85563    1.000
    O83      O        0.79137    0.98303    0.82933    1.000
    O84      O        0.70537    0.94103    0.86663    1.000
    N49      N        0.82687    0.17383    0.93633    1.000
    C377     C        0.87267    0.23633    0.95413    1.000
    O85      O        0.95067    0.27333    0.95503    1.000
    H244     H        0.77357    0.14023    0.94083    1.000
    C378     C        0.83507    0.23133    0.98283    1.000
    C379     C        0.88557    0.28763    0.00333    1.000
    C380     C        0.85157    0.28323    0.02923    1.000
    C381     C        0.76707    0.22283    0.03473    1.000
    C382     C        0.71657    0.16653    0.01423    1.000
    C383     C        0.75057    0.17083    0.98833    1.000
    H245     H        0.94157    0.32823    0.99963    1.000
    H246     H        0.88467    0.32033    0.04273    1.000
    H247     H        0.66067    0.12633    0.01793    1.000
    H248     H        0.71717    0.13383    0.97483    1.000
    C384     C        0.73087    0.21833    0.06233    1.000
    C385     C        0.77127    0.21173    0.08733    1.000
    N50      N        0.73627    0.20423    0.11201    1.000
    C386     C        0.65567    0.20203    0.11543    1.000
    N51      N        0.61517    0.20893    0.09073    1.000
    C387     C        0.65007    0.21633    0.06603    1.000
    H249     H        0.62297    0.22043    0.05053    1.000
    H250     H        0.63267    0.19663    0.13263    1.000
    H251     H        0.82247    0.21263    0.08633    1.000
    C388     C        0.88697    0.25203    0.00593    1.000
    C389     C        0.85297    0.24763    0.03183    1.000
    C390     C        0.71527    0.20233    0.01163    1.000
    C391     C        0.74927    0.20653    0.98573    1.000
    H252     H        0.94377    0.26843    0.00403    1.000
    H253     H        0.88767    0.26133    0.04713    1.000
    H254     H        0.65847    0.18613    0.01353    1.000
    H255     H        0.71497    0.19263    0.97043    1.000
    Cu18     Cu       0.82863    0.61307    0.14497    1.000
    C392     C        0.70583    0.58247    0.19507    1.000
    O86      O        0.71033    0.56167    0.16967    1.000
    O87      O        0.76653    0.65387    0.20527    1.000
    C393     C        0.52873    0.49507    0.24527    1.000
    C394     C        0.47233    0.41967    0.23247    1.000
    H256     H        0.42433    0.37967    0.24167    1.000
    C395     C        0.48733    0.40267    0.20577    1.000
    C396     C        0.55933    0.46267    0.19187    1.000
    H257     H        0.57033    0.45267    0.17427    1.000
    C397     C        0.61653    0.53957    0.20467    1.000
    C398     C        0.60113    0.55557    0.23137    1.000
    H258     H        0.63833    0.60567    0.23987    1.000
    C399     C        0.44723    0.32157    0.18897    1.000
    O88      O        0.45803    0.31637    0.16267    1.000
    O89      O        0.37203    0.27437    0.19997    1.000
    N52      N        0.49353    0.50717    0.26967    1.000
    C400     C        0.53933    0.56967    0.28747    1.000
    O90      O        0.61733    0.60667    0.28837    1.000
    H259     H        0.44023    0.47357    0.27417    1.000
    C401     C        0.50173    0.56467    0.31617    1.000
    C402     C        0.55223    0.62097    0.33667    1.000
    C403     C        0.51823    0.61657    0.36257    1.000
    C404     C        0.43373    0.55617    0.36807    1.000
    C405     C        0.38323    0.49987    0.34757    1.000
    C406     C        0.41723    0.50417    0.32167    1.000
    H260     H        0.60823    0.66157    0.33297    1.000
    H261     H        0.55133    0.65367    0.37607    1.000
    H262     H        0.32733    0.45967    0.35127    1.000
    H263     H        0.38383    0.46717    0.30817    1.000
    C407     C        0.39753    0.55167    0.39567    1.000
    C408     C        0.43793    0.54507    0.42067    1.000
    N53      N        0.40293    0.53757    0.44535    1.000
    C409     C        0.32233    0.53537    0.44877    1.000
    N54      N        0.28183    0.54227    0.42407    1.000
    C410     C        0.31673    0.54967    0.39937    1.000
    H264     H        0.28963    0.55377    0.38387    1.000
    H265     H        0.29933    0.52997    0.46597    1.000
    H266     H        0.48913    0.54597    0.41967    1.000
    C411     C        0.55363    0.58537    0.33927    1.000
    C412     C        0.51963    0.58097    0.36517    1.000
    C413     C        0.38193    0.53567    0.34497    1.000
    C414     C        0.41593    0.53987    0.31907    1.000
    H267     H        0.61043    0.60177    0.33737    1.000
    H268     H        0.55433    0.59467    0.38047    1.000
    H269     H        0.32513    0.51947    0.34687    1.000
    H270     H        0.38163    0.52597    0.30377    1.000
