# CIF file generated by openbabel 3.1.0, see https://openbabel.org
data_I
_chemical_name_common 'image0'
_cell_length_a 14.4211
_cell_length_b 12.1181
_cell_length_c 14.0692
_cell_angle_alpha 90
_cell_angle_beta 90
_cell_angle_gamma 90
_space_group_name_H-M_alt 'P 1'
_space_group_name_Hall 'P 1'
loop_
    _symmetry_equiv_pos_as_xyz
    x,y,z
loop_
    _atom_site_label
    _atom_site_type_symbol
    _atom_site_fract_x
    _atom_site_fract_y
    _atom_site_fract_z
    _atom_site_occupancy
    S1       S        0.16309    0.86626    0.18859    1.000
    O1       O        0.22140    0.87900    0.09650    1.000
    O2       O        0.22390    0.90440    0.26650    1.000
    O3       O        0.09170    0.95730    0.17380    1.000
    S2       S        0.16309    0.36626    0.68859    1.000
    O4       O        0.22140    0.37900    0.59650    1.000
    O5       O        0.22390    0.40440    0.76650    1.000
    O6       O        0.09170    0.45730    0.67380    1.000
    S3       S        0.66309    0.86626    0.68859    1.000
    O7       O        0.72140    0.87900    0.59650    1.000
    O8       O        0.72390    0.90440    0.76650    1.000
    O9       O        0.59170    0.95730    0.67380    1.000
    S4       S        0.66309    0.36626    0.18859    1.000
    O10      O        0.72140    0.37900    0.09650    1.000
    O11      O        0.72390    0.40440    0.26650    1.000
    O12      O        0.59170    0.45730    0.17380    1.000
    S5       S        0.83691    0.13374    0.18859    1.000
    O13      O        0.77860    0.12100    0.09650    1.000
    O14      O        0.77610    0.09560    0.26650    1.000
    O15      O        0.90830    0.04270    0.17380    1.000
    S6       S        0.83691    0.63374    0.68859    1.000
    O16      O        0.77860    0.62100    0.59650    1.000
    O17      O        0.77610    0.59560    0.76650    1.000
    O18      O        0.90830    0.54270    0.67380    1.000
    S7       S        0.33691    0.13374    0.68859    1.000
    O19      O        0.27860    0.12100    0.59650    1.000
    O20      O        0.27610    0.09560    0.76650    1.000
    O21      O        0.40830    0.04270    0.67380    1.000
    S8       S        0.33691    0.63374    0.18859    1.000
    O22      O        0.27860    0.62100    0.09650    1.000
    O23      O        0.27610    0.59560    0.26650    1.000
    O24      O        0.40830    0.54270    0.17380    1.000
    S9       S        0.41309    0.38374    0.43859    1.000
    O25      O        0.47140    0.37100    0.34650    1.000
    O26      O        0.47390    0.34560    0.51650    1.000
    O27      O        0.34170    0.29270    0.42380    1.000
    S10      S        0.41309    0.88374    0.93859    1.000
    O28      O        0.47140    0.87100    0.84650    1.000
    O29      O        0.47390    0.84560    0.01650    1.000
    O30      O        0.34170    0.79270    0.92380    1.000
    S11      S        0.91309    0.38374    0.93859    1.000
    O31      O        0.97140    0.37100    0.84650    1.000
    O32      O        0.97390    0.34560    0.01650    1.000
    O33      O        0.84170    0.29270    0.92380    1.000
    S12      S        0.91309    0.88374    0.43859    1.000
    O34      O        0.97140    0.87100    0.34650    1.000
    O35      O        0.97390    0.84560    0.51650    1.000
    O36      O        0.84170    0.79270    0.42380    1.000
    S13      S        0.08691    0.11626    0.43859    1.000
    O37      O        0.02860    0.12900    0.34650    1.000
    O38      O        0.02610    0.15440    0.51650    1.000
    O39      O        0.15830    0.20730    0.42380    1.000
    S14      S        0.08691    0.61626    0.93859    1.000
    O40      O        0.02860    0.62900    0.84650    1.000
    O41      O        0.02610    0.65440    0.01650    1.000
    O42      O        0.15830    0.70730    0.92380    1.000
    S15      S        0.58691    0.11626    0.93859    1.000
    O43      O        0.52860    0.12900    0.84650    1.000
    O44      O        0.52610    0.15440    0.01650    1.000
    O45      O        0.65830    0.20730    0.92380    1.000
    S16      S        0.58691    0.61626    0.43859    1.000
    O46      O        0.52860    0.62900    0.34650    1.000
    O47      O        0.52610    0.65440    0.51650    1.000
    O48      O        0.65830    0.70730    0.42380    1.000
    Zn1      Zn       0.25000    0.75000    0.01900    1.000
    Zn2      Zn       0.25000    0.25000    0.51900    1.000
    Zn3      Zn       0.75000    0.25000    0.01900    1.000
    Zn4      Zn       0.75000    0.75000    0.51900    1.000
    Zn5      Zn       0.50000    0.50000    0.26900    1.000
    Zn6      Zn       0.50000    0.00000    0.76900    1.000
    Zn7      Zn       0.00000    0.00000    0.26900    1.000
    Zn8      Zn       0.00000    0.50000    0.76900    1.000
