# CIF file generated by openbabel 3.1.0, see https://openbabel.org
data_I
_chemical_name_common 'image0'
_cell_length_a 12.721
_cell_length_b 12.855
_cell_length_c 17.454
_cell_angle_alpha 106.426
_cell_angle_beta 102.724
_cell_angle_gamma 99.862
_space_group_name_H-M_alt 'P 1'
_space_group_name_Hall 'P 1'
loop_
    _symmetry_equiv_pos_as_xyz
    x,y,z
loop_
    _atom_site_label
    _atom_site_type_symbol
    _atom_site_fract_x
    _atom_site_fract_y
    _atom_site_fract_z
    _atom_site_occupancy
    C1       C        0.38640    0.48970    0.10650    1.000
    C2       C        0.89530    0.79430    0.56610    1.000
    H1       H        0.89600    0.73710    0.59310    1.000
    H2       H        0.84380    0.76150    0.50980    1.000
    H3       H        0.87120    0.85650    0.59860    1.000
    C3       C        0.09540    0.88140    0.64700    1.000
    H4       H        0.07390    0.94250    0.68310    1.000
    H5       H        0.16990    0.90910    0.64280    1.000
    H6       H        0.09590    0.82080    0.67070    1.000
    C4       C        0.46000    0.49200    0.18840    1.000
    H7       H        0.41650    0.49420    0.22850    1.000
    H8       H        0.52260    0.55860    0.21030    1.000
    H9       H        0.48840    0.42460    0.17940    1.000
    C5       C        0.04710    0.74260    0.50370    1.000
    H10      H        0.04330    0.67950    0.52490    1.000
    H11      H        0.12340    0.76970    0.50260    1.000
    H12      H        0.99660    0.71790    0.44720    1.000
    C6       C        0.01260    0.83760    0.56090    1.000
    C7       C        0.28940    0.38630    0.07110    1.000
    H13      H        0.31780    0.31900    0.06330    1.000
    H14      H        0.24390    0.38460    0.01730    1.000
    H15      H        0.24380    0.38870    0.10980    1.000
    C8       C        0.34110    0.59560    0.12000    1.000
    H16      H        0.29610    0.59700    0.15900    1.000
    H17      H        0.29490    0.59430    0.06660    1.000
    H18      H        0.40340    0.66240    0.14290    1.000
    N1       N        0.01880    0.93290    0.52660    1.000
    N2       N        0.45310    0.48470    0.04510    1.000
    Na1      Na       0.15259    0.31854    0.77870    1.000
    Na2      Na       0.25476    0.01960    0.50634    1.000
    P1       P        0.41097    0.45432    0.94006    1.000
    P2       P        0.02871    0.07091    0.57387    1.000
    S1       S        0.36426    0.29159    0.87526    1.000
    S2       S        0.92315    0.10155    0.64060    1.000
    Cl1      Cl       0.30625    0.53938    0.90178    1.000
    Cl2      Cl       0.18388    0.16049    0.63281    1.000
    C9       C        0.76350    0.15640    0.07400    1.000
    H19      H        0.74390    0.16390    0.01860    1.000
    H20      H        0.73450    0.20860    0.11160    1.000
    H21      H        0.84460    0.17350    0.09570    1.000
    C10      C        0.71240    0.03570    0.06770    1.000
    C11      C        0.76230    0.95370    0.01220    1.000
    H22      H        0.84360    0.97560    0.03400    1.000
    H23      H        0.73420    0.87770    0.01200    1.000
    H24      H        0.74070    0.95550    0.95520    1.000
    C12      C        0.73570    0.02640    0.15380    1.000
    H25      H        0.70030    0.07620    0.18760    1.000
    H26      H        0.70560    0.94900    0.14970    1.000
    H27      H        0.81620    0.04810    0.18000    1.000
    N3       N        0.58880    0.00350    0.02970    1.000
    Na3      Na       0.53377    0.25130    0.99040    1.000
    P3       P        0.51429    0.96429    0.92786    1.000
    S3       S        0.48806    0.80207    0.86646    1.000
    Cl3      Cl       0.56350    0.06253    0.86674    1.000
    C13      C        0.41560    0.82610    0.36500    1.000
    C14      C        0.35060    0.72860    0.38370    1.000
    H28      H        0.40040    0.70950    0.42610    1.000
    H29      H        0.28930    0.75080    0.40430    1.000
    H30      H        0.32060    0.66350    0.33260    1.000
    C15      C        0.51600    0.79530    0.33760    1.000
    H31      H        0.49000    0.73060    0.28610    1.000
    H32      H        0.55850    0.85900    0.32790    1.000
    H33      H        0.56370    0.77650    0.38140    1.000
    C16      C        0.34020    0.85280    0.29660    1.000
    H34      H        0.27850    0.87690    0.31550    1.000
    H35      H        0.38290    0.91300    0.28320    1.000
    H36      H        0.31060    0.78580    0.24680    1.000
    N4       N        0.45230    0.92570    0.44240    1.000
    P4       P        0.50166    0.06427    0.45637    1.000
    S4       S        0.38421    0.14356    0.43277    1.000
    Cl4      Cl       0.62326    0.09601    0.40517    1.000
    Na4      Na       0.52686    0.84230    0.71720    1.000
    C17      C        0.61360    0.51030    0.89350    1.000
    C18      C        0.10470    0.20570    0.43390    1.000
    H37      H        0.10400    0.26290    0.40690    1.000
    H38      H        0.15620    0.23850    0.49020    1.000
    H39      H        0.12880    0.14350    0.40140    1.000
    C19      C        0.90460    0.11860    0.35300    1.000
    H40      H        0.92610    0.05750    0.31690    1.000
    H41      H        0.83010    0.09090    0.35720    1.000
    H42      H        0.90410    0.17920    0.32930    1.000
    C20      C        0.54000    0.50800    0.81160    1.000
    H43      H        0.58350    0.50580    0.77150    1.000
    H44      H        0.47740    0.44140    0.78970    1.000
    H45      H        0.51160    0.57540    0.82060    1.000
    C21      C        0.95290    0.25740    0.49630    1.000
    H46      H        0.95670    0.32050    0.47510    1.000
    H47      H        0.87660    0.23030    0.49740    1.000
    H48      H        0.00340    0.28210    0.55280    1.000
    C22      C        0.98740    0.16240    0.43910    1.000
    C23      C        0.71060    0.61370    0.92890    1.000
    H49      H        0.68220    0.68100    0.93670    1.000
    H50      H        0.75610    0.61540    0.98270    1.000
    H51      H        0.75620    0.61130    0.89020    1.000
    C24      C        0.65890    0.40440    0.88000    1.000
    H52      H        0.70390    0.40300    0.84100    1.000
    H53      H        0.70510    0.40570    0.93340    1.000
    H54      H        0.59660    0.33760    0.85710    1.000
    N5       N        0.98120    0.06710    0.47340    1.000
    N6       N        0.54690    0.51530    0.95490    1.000
    Na5      Na       0.84741    0.68146    0.22130    1.000
    Na6      Na       0.74524    0.98040    0.49366    1.000
    P5       P        0.58903    0.54568    0.05994    1.000
    P6       P        0.97129    0.92909    0.42613    1.000
    S5       S        0.63574    0.70841    0.12474    1.000
    S6       S        0.07685    0.89845    0.35940    1.000
    Cl5      Cl       0.69375    0.46062    0.09822    1.000
    Cl6      Cl       0.81612    0.83951    0.36719    1.000
    C25      C        0.23650    0.84360    0.92600    1.000
    H55      H        0.25610    0.83610    0.98140    1.000
    H56      H        0.26550    0.79140    0.88840    1.000
    H57      H        0.15540    0.82650    0.90430    1.000
    C26      C        0.28760    0.96430    0.93230    1.000
    C27      C        0.23770    0.04630    0.98780    1.000
    H58      H        0.15640    0.02440    0.96600    1.000
    H59      H        0.26580    0.12230    0.98800    1.000
    H60      H        0.25930    0.04450    0.04480    1.000
    C28      C        0.26430    0.97360    0.84620    1.000
    H61      H        0.29970    0.92380    0.81240    1.000
    H62      H        0.29440    0.05100    0.85030    1.000
    H63      H        0.18380    0.95190    0.82000    1.000
    N7       N        0.41120    0.99650    0.97030    1.000
    Na7      Na       0.46623    0.74870    0.00960    1.000
    P7       P        0.48571    0.03571    0.07214    1.000
    S7       S        0.51194    0.19793    0.13354    1.000
    Cl7      Cl       0.43650    0.93747    0.13326    1.000
    C29      C        0.58440    0.17390    0.63500    1.000
    C30      C        0.64940    0.27140    0.61630    1.000
    H64      H        0.59960    0.29050    0.57390    1.000
    H65      H        0.71070    0.24920    0.59570    1.000
    H66      H        0.67940    0.33650    0.66740    1.000
    C31      C        0.48400    0.20470    0.66240    1.000
    H67      H        0.51000    0.26940    0.71390    1.000
    H68      H        0.44150    0.14100    0.67210    1.000
    H69      H        0.43630    0.22350    0.61860    1.000
    C32      C        0.65980    0.14720    0.70340    1.000
    H70      H        0.72150    0.12310    0.68450    1.000
    H71      H        0.61710    0.08700    0.71680    1.000
    H72      H        0.68940    0.21420    0.75320    1.000
    N8       N        0.54770    0.07430    0.55760    1.000
    P8       P        0.49834    0.93573    0.54363    1.000
    S8       S        0.61579    0.85644    0.56723    1.000
    Cl8      Cl       0.37674    0.90399    0.59483    1.000
    Na8      Na       0.47314    0.15770    0.28280    1.000
