# CIF file generated by openbabel 3.1.0, see https://openbabel.org
data_I
_chemical_name_common 'image0'
_cell_length_a 13.559
_cell_length_b 13.559
_cell_length_c 15.6782
_cell_angle_alpha 90
_cell_angle_beta 90
_cell_angle_gamma 90
_space_group_name_H-M_alt 'P 1'
_space_group_name_Hall 'P 1'
loop_
    _symmetry_equiv_pos_as_xyz
    x,y,z
loop_
    _atom_site_label
    _atom_site_type_symbol
    _atom_site_fract_x
    _atom_site_fract_y
    _atom_site_fract_z
    _atom_site_occupancy
    S1       S        0.27708    0.78504    0.10828    1.000
    O1       O        0.37910    0.95270    0.01600    1.000
    O2       O        0.47330    0.99790    0.12190    1.000
    O3       O        0.14800    0.61560    0.15750    1.000
    O4       O        0.19430    0.60600    0.29080    1.000
    C1       C        0.38480    0.84910    0.22860    1.000
    H1       H        0.42850    0.88750    0.26010    1.000
    C2       C        0.27010    0.72760    0.20380    1.000
    C3       C        0.36350    0.86600    0.14590    1.000
    C4       C        0.33400    0.76690    0.26260    1.000
    H2       H        0.34260    0.74270    0.31760    1.000
    C5       C        0.40690    0.94290    0.09120    1.000
    C6       C        0.20040    0.64500    0.21770    1.000
    S2       S        0.72292    0.21496    0.60828    1.000
    O5       O        0.62090    0.04730    0.51600    1.000
    O6       O        0.52670    0.00210    0.62190    1.000
    O7       O        0.85200    0.38440    0.65750    1.000
    O8       O        0.80570    0.39400    0.79080    1.000
    C7       C        0.61520    0.15090    0.72860    1.000
    H3       H        0.57150    0.11250    0.76010    1.000
    C8       C        0.72990    0.27240    0.70380    1.000
    C9       C        0.63650    0.13400    0.64590    1.000
    C10      C        0.66600    0.23310    0.76260    1.000
    H4       H        0.65740    0.25730    0.81760    1.000
    C11      C        0.59310    0.05710    0.59120    1.000
    C12      C        0.79960    0.35500    0.71770    1.000
    S3       S        0.21496    0.27708    0.85828    1.000
    O9       O        0.04730    0.37910    0.76600    1.000
    O10      O        0.00210    0.47330    0.87190    1.000
    O11      O        0.38440    0.14800    0.90750    1.000
    O12      O        0.39400    0.19430    0.04080    1.000
    C13      C        0.15090    0.38480    0.97860    1.000
    H5       H        0.11250    0.42850    0.01010    1.000
    C14      C        0.27240    0.27010    0.95380    1.000
    C15      C        0.13400    0.36350    0.89590    1.000
    C16      C        0.23310    0.33400    0.01260    1.000
    H6       H        0.25730    0.34260    0.06760    1.000
    C17      C        0.05710    0.40690    0.84120    1.000
    C18      C        0.35500    0.20040    0.96770    1.000
    S4       S        0.78504    0.72292    0.35828    1.000
    O13      O        0.95270    0.62090    0.26600    1.000
    O14      O        0.99790    0.52670    0.37190    1.000
    O15      O        0.61560    0.85200    0.40750    1.000
    O16      O        0.60600    0.80570    0.54080    1.000
    C19      C        0.84910    0.61520    0.47860    1.000
    H7       H        0.88750    0.57150    0.51010    1.000
    C20      C        0.72760    0.72990    0.45380    1.000
    C21      C        0.86600    0.63650    0.39590    1.000
    C22      C        0.76690    0.66600    0.51260    1.000
    H8       H        0.74270    0.65740    0.56760    1.000
    C23      C        0.94290    0.59310    0.34120    1.000
    C24      C        0.64500    0.79960    0.46770    1.000
    S5       S        0.72292    0.78504    0.89172    1.000
    O17      O        0.62090    0.95270    0.98400    1.000
    O18      O        0.52670    0.99790    0.87810    1.000
    O19      O        0.85200    0.61560    0.84250    1.000
    O20      O        0.80570    0.60600    0.70920    1.000
    C25      C        0.61520    0.84910    0.77140    1.000
    H9       H        0.57150    0.88750    0.73990    1.000
    C26      C        0.72990    0.72760    0.79620    1.000
    C27      C        0.63650    0.86600    0.85410    1.000
    C28      C        0.66600    0.76690    0.73740    1.000
    H10      H        0.65740    0.74270    0.68240    1.000
    C29      C        0.59310    0.94290    0.90880    1.000
    C30      C        0.79960    0.64500    0.78230    1.000
    S6       S        0.27708    0.21496    0.39172    1.000
    O21      O        0.37910    0.04730    0.48400    1.000
    O22      O        0.47330    0.00210    0.37810    1.000
    O23      O        0.14800    0.38440    0.34250    1.000
    O24      O        0.19430    0.39400    0.20920    1.000
    C31      C        0.38480    0.15090    0.27140    1.000
    H11      H        0.42850    0.11250    0.23990    1.000
    C32      C        0.27010    0.27240    0.29620    1.000
    C33      C        0.36350    0.13400    0.35410    1.000
    C34      C        0.33400    0.23310    0.23740    1.000
    H12      H        0.34260    0.25730    0.18240    1.000
    C35      C        0.40690    0.05710    0.40880    1.000
    C36      C        0.20040    0.35500    0.28230    1.000
    S7       S        0.78504    0.27708    0.14172    1.000
    O25      O        0.95270    0.37910    0.23400    1.000
    O26      O        0.99790    0.47330    0.12810    1.000
    O27      O        0.61560    0.14800    0.09250    1.000
    O28      O        0.60600    0.19430    0.95920    1.000
    C37      C        0.84910    0.38480    0.02140    1.000
    H13      H        0.88750    0.42850    0.98990    1.000
    C38      C        0.72760    0.27010    0.04620    1.000
    C39      C        0.86600    0.36350    0.10410    1.000
    C40      C        0.76690    0.33400    0.98740    1.000
    H14      H        0.74270    0.34260    0.93240    1.000
    C41      C        0.94290    0.40690    0.15880    1.000
    C42      C        0.64500    0.20040    0.03230    1.000
    S8       S        0.21496    0.72292    0.64172    1.000
    O29      O        0.04730    0.62090    0.73400    1.000
    O30      O        0.00210    0.52670    0.62810    1.000
    O31      O        0.38440    0.85200    0.59250    1.000
    O32      O        0.39400    0.80570    0.45920    1.000
    C43      C        0.15090    0.61520    0.52140    1.000
    H15      H        0.11250    0.57150    0.48990    1.000
    C44      C        0.27240    0.72990    0.54620    1.000
    C45      C        0.13400    0.63650    0.60410    1.000
    C46      C        0.23310    0.66600    0.48740    1.000
    H16      H        0.25730    0.65740    0.43240    1.000
    C47      C        0.05710    0.59310    0.65880    1.000
    C48      C        0.35500    0.79960    0.53230    1.000
    In1      In       0.50000    0.07701    0.00000    1.000
    In2      In       0.50000    0.92299    0.50000    1.000
    In3      In       0.92299    0.50000    0.75000    1.000
    In4      In       0.07701    0.50000    0.25000    1.000
