# CIF file generated by openbabel 3.1.0, see https://openbabel.org
data_I
_chemical_name_common 'image0'
_cell_length_a 25.8546
_cell_length_b 12.3906
_cell_length_c 13.5382
_cell_angle_alpha 90
_cell_angle_beta 116.417
_cell_angle_gamma 90
_space_group_name_H-M_alt 'P 1'
_space_group_name_Hall 'P 1'
loop_
    _symmetry_equiv_pos_as_xyz
    x,y,z
loop_
    _atom_site_label
    _atom_site_type_symbol
    _atom_site_fract_x
    _atom_site_fract_y
    _atom_site_fract_z
    _atom_site_occupancy
    C1       C        0.91210    0.86040    0.49080    1.000
    C2       C        0.81795    0.69940    0.18940    1.000
    C3       C        0.91540    0.09010    0.79490    1.000
    C4       C        0.80600    0.90350    0.18900    1.000
    C5       C        0.79280    0.87130    0.36400    1.000
    C6       C        0.83451    0.67640    0.40590    1.000
    C7       C        0.92623    0.68890    0.35200    1.000
    N1       N        0.94191    0.88850    0.58000    1.000
    N2       N        0.79985    0.63610    0.11850    1.000
    N3       N        0.94553    0.03020    0.78160    1.000
    N4       N        0.77640    0.95380    0.11120    1.000
    N5       N        0.75798    0.90210    0.38930    1.000
    N6       N        0.82203    0.61060    0.45230    1.000
    N7       N        0.95868    0.61840    0.36590    1.000
    Mn1      Mn       0.78820    0.48351    0.04126    1.000
    Mo1      Mo       0.85785    0.80568    0.32461    1.000
    C8       C        0.41210    0.36040    0.49080    1.000
    C9       C        0.31795    0.19940    0.18940    1.000
    C10      C        0.41540    0.59010    0.79490    1.000
    C11      C        0.30600    0.40350    0.18900    1.000
    C12      C        0.29280    0.37130    0.36400    1.000
    C13      C        0.33451    0.17640    0.40590    1.000
    C14      C        0.42623    0.18890    0.35200    1.000
    N8       N        0.44191    0.38850    0.58000    1.000
    N9       N        0.29985    0.13610    0.11850    1.000
    N10      N        0.44553    0.53020    0.78160    1.000
    N11      N        0.27640    0.45380    0.11120    1.000
    N12      N        0.25798    0.40210    0.38930    1.000
    N13      N        0.32203    0.11060    0.45230    1.000
    N14      N        0.45868    0.11840    0.36590    1.000
    Mn2      Mn       0.28820    0.98351    0.04126    1.000
    Mo2      Mo       0.35785    0.30568    0.32461    1.000
    C15      C        0.08790    0.86040    0.00920    1.000
    C16      C        0.18205    0.69940    0.31060    1.000
    C17      C        0.08460    0.09010    0.70510    1.000
    C18      C        0.19400    0.90350    0.31100    1.000
    C19      C        0.20720    0.87130    0.13600    1.000
    C20      C        0.16549    0.67640    0.09410    1.000
    C21      C        0.07377    0.68890    0.14800    1.000
    N15      N        0.05809    0.88850    0.92000    1.000
    N16      N        0.20015    0.63610    0.38150    1.000
    N17      N        0.05447    0.03020    0.71840    1.000
    N18      N        0.22360    0.95380    0.38880    1.000
    N19      N        0.24202    0.90210    0.11070    1.000
    N20      N        0.17797    0.61060    0.04770    1.000
    N21      N        0.04132    0.61840    0.13410    1.000
    Mn3      Mn       0.21180    0.48351    0.45874    1.000
    Mo3      Mo       0.14215    0.80568    0.17539    1.000
    C22      C        0.58790    0.36040    0.00920    1.000
    C23      C        0.68205    0.19940    0.31060    1.000
    C24      C        0.58460    0.59010    0.70510    1.000
    C25      C        0.69400    0.40350    0.31100    1.000
    C26      C        0.70720    0.37130    0.13600    1.000
    C27      C        0.66549    0.17640    0.09410    1.000
    C28      C        0.57377    0.18890    0.14800    1.000
    N22      N        0.55809    0.38850    0.92000    1.000
    N23      N        0.70015    0.13610    0.38150    1.000
    N24      N        0.55447    0.53020    0.71840    1.000
    N25      N        0.72360    0.45380    0.38880    1.000
    N26      N        0.74202    0.40210    0.11070    1.000
    N27      N        0.67797    0.11060    0.04770    1.000
    N28      N        0.54132    0.11840    0.13410    1.000
    Mn4      Mn       0.71180    0.98351    0.45874    1.000
    Mo4      Mo       0.64215    0.30568    0.17539    1.000
    C29      C        0.08790    0.13960    0.50920    1.000
    C30      C        0.18205    0.30060    0.81060    1.000
    C31      C        0.08460    0.90990    0.20510    1.000
    C32      C        0.19400    0.09650    0.81100    1.000
    C33      C        0.20720    0.12870    0.63600    1.000
    C34      C        0.16549    0.32360    0.59410    1.000
    C35      C        0.07377    0.31110    0.64800    1.000
    N29      N        0.05809    0.11150    0.42000    1.000
    N30      N        0.20015    0.36390    0.88150    1.000
    N31      N        0.05447    0.96980    0.21840    1.000
    N32      N        0.22360    0.04620    0.88880    1.000
    N33      N        0.24202    0.09790    0.61070    1.000
    N34      N        0.17797    0.38940    0.54770    1.000
    N35      N        0.04132    0.38160    0.63410    1.000
    Mn5      Mn       0.21180    0.51649    0.95874    1.000
    Mo5      Mo       0.14215    0.19432    0.67539    1.000
    C36      C        0.58790    0.63960    0.50920    1.000
    C37      C        0.68205    0.80060    0.81060    1.000
    C38      C        0.58460    0.40990    0.20510    1.000
    C39      C        0.69400    0.59650    0.81100    1.000
    C40      C        0.70720    0.62870    0.63600    1.000
    C41      C        0.66549    0.82360    0.59410    1.000
    C42      C        0.57377    0.81110    0.64800    1.000
    N36      N        0.55809    0.61150    0.42000    1.000
    N37      N        0.70015    0.86390    0.88150    1.000
    N38      N        0.55447    0.46980    0.21840    1.000
    N39      N        0.72360    0.54620    0.88880    1.000
    N40      N        0.74202    0.59790    0.61070    1.000
    N41      N        0.67797    0.88940    0.54770    1.000
    N42      N        0.54132    0.88160    0.63410    1.000
    Mn6      Mn       0.71180    0.01649    0.95874    1.000
    Mo6      Mo       0.64215    0.69432    0.67539    1.000
    C43      C        0.91210    0.13960    0.99080    1.000
    C44      C        0.81795    0.30060    0.68940    1.000
    C45      C        0.91540    0.90990    0.29490    1.000
    C46      C        0.80600    0.09650    0.68900    1.000
    C47      C        0.79280    0.12870    0.86400    1.000
    C48      C        0.83451    0.32360    0.90590    1.000
    C49      C        0.92623    0.31110    0.85200    1.000
    N43      N        0.94191    0.11150    0.08000    1.000
    N44      N        0.79985    0.36390    0.61850    1.000
    N45      N        0.94553    0.96980    0.28160    1.000
    N46      N        0.77640    0.04620    0.61120    1.000
    N47      N        0.75798    0.09790    0.88930    1.000
    N48      N        0.82203    0.38940    0.95230    1.000
    N49      N        0.95868    0.38160    0.86590    1.000
    Mn7      Mn       0.78820    0.51649    0.54126    1.000
    Mo7      Mo       0.85785    0.19432    0.82461    1.000
    C50      C        0.41210    0.63960    0.99080    1.000
    C51      C        0.31795    0.80060    0.68940    1.000
    C52      C        0.41540    0.40990    0.29490    1.000
    C53      C        0.30600    0.59650    0.68900    1.000
    C54      C        0.29280    0.62870    0.86400    1.000
    C55      C        0.33451    0.82360    0.90590    1.000
    C56      C        0.42623    0.81110    0.85200    1.000
    N50      N        0.44191    0.61150    0.08000    1.000
    N51      N        0.29985    0.86390    0.61850    1.000
    N52      N        0.44553    0.46980    0.28160    1.000
    N53      N        0.27640    0.54620    0.61120    1.000
    N54      N        0.25798    0.59790    0.88930    1.000
    N55      N        0.32203    0.88940    0.95230    1.000
    N56      N        0.45868    0.88160    0.86590    1.000
    Mn8      Mn       0.28820    0.01649    0.54126    1.000
    Mo8      Mo       0.35785    0.69432    0.82461    1.000
    Mn9      Mn       0.00000    0.92221    0.75000    1.000
    Mn10     Mn       0.50000    0.42221    0.75000    1.000
    Mn11     Mn       0.00000    0.07779    0.25000    1.000
    Mn12     Mn       0.50000    0.57779    0.25000    1.000
