# CIF file generated by openbabel 3.1.0, see https://openbabel.org
data_I
_chemical_name_common 'image0'
_cell_length_a 12.7035
_cell_length_b 12.7035
_cell_length_c 25.438
_cell_angle_alpha 90
_cell_angle_beta 90
_cell_angle_gamma 90
_space_group_name_H-M_alt 'P 1'
_space_group_name_Hall 'P 1'
loop_
    _symmetry_equiv_pos_as_xyz
    x,y,z
loop_
    _atom_site_label
    _atom_site_type_symbol
    _atom_site_fract_x
    _atom_site_fract_y
    _atom_site_fract_z
    _atom_site_occupancy
    Zn1      Zn       0.53734    0.43131    0.43804    1.000
    N1       N        0.63030    0.47260    0.49900    1.000
    N2       N        0.77430    0.47720    0.54803    1.000
    N3       N        0.60220    0.50340    0.54976    1.000
    C1       C        0.69040    0.50390    0.57700    1.000
    C2       C        0.73090    0.45930    0.50060    1.000
    H1       H        0.77010    0.43900    0.47140    1.000
    O1       O        0.64330    0.45820    0.38340    1.000
    O2       O        0.51130    0.41310    0.33730    1.000
    C3       C        0.60240    0.43950    0.34150    1.000
    N4       N        0.71400    0.53300    0.62870    1.000
    H2       H        0.66350    0.53340    0.65350    1.000
    H3       H        0.78050    0.55070    0.63720    1.000
    C4       C        0.65900    0.43200    0.28840    1.000
    H4       H        0.63400    0.37150    0.26900    1.000
    H5       H        0.64460    0.49480    0.26770    1.000
    C5       C        0.77630    0.42300    0.29780    1.000
    H6       H        0.79310    0.49390    0.30720    1.000
    H7       H        0.79960    0.37610    0.32510    1.000
    N5       N        0.47200    0.18600    0.37070    1.000
    H8       H        0.45220    0.24440    0.35350    1.000
    H9       H        0.47750    0.12440    0.35340    1.000
    C6       C        0.64800    0.40900    0.24900    1.000
    H10      H        0.66350    0.33750    0.25810    1.000
    H11      H        0.57370    0.41620    0.24260    1.000
    C7       C        0.67700    0.46500    0.29860    1.000
    H12      H        0.74780    0.44450    0.30900    1.000
    H13      H        0.67720    0.54040    0.29250    1.000
    Zn2      Zn       0.96266    0.06869    0.43804    1.000
    N6       N        0.86970    0.02740    0.49900    1.000
    N7       N        0.72570    0.02280    0.54803    1.000
    N8       N        0.89780    0.99660    0.54976    1.000
    C8       C        0.80960    0.99610    0.57700    1.000
    C9       C        0.76910    0.04070    0.50060    1.000
    H14      H        0.72990    0.06100    0.47140    1.000
    O3       O        0.85670    0.04180    0.38340    1.000
    O4       O        0.98870    0.08690    0.33730    1.000
    C10      C        0.89760    0.06050    0.34150    1.000
    N9       N        0.78600    0.96700    0.62870    1.000
    H15      H        0.83650    0.96660    0.65350    1.000
    H16      H        0.71950    0.94930    0.63720    1.000
    C11      C        0.84100    0.06800    0.28840    1.000
    H17      H        0.86600    0.12850    0.26900    1.000
    H18      H        0.85540    0.00520    0.26770    1.000
    C12      C        0.72370    0.07700    0.29780    1.000
    H19      H        0.70690    0.00610    0.30720    1.000
    H20      H        0.70040    0.12390    0.32510    1.000
    N10      N        0.02800    0.31400    0.37070    1.000
    H21      H        0.04780    0.25560    0.35350    1.000
    H22      H        0.02250    0.37560    0.35340    1.000
    C13      C        0.85200    0.09100    0.24900    1.000
    H23      H        0.83650    0.16250    0.25810    1.000
    H24      H        0.92630    0.08380    0.24260    1.000
    C14      C        0.82300    0.03500    0.29860    1.000
    H25      H        0.75220    0.05550    0.30900    1.000
    H26      H        0.82280    0.95960    0.29250    1.000
    Zn3      Zn       0.06869    0.53734    0.43804    1.000
    N11      N        0.02740    0.63030    0.49900    1.000
    N12      N        0.02280    0.77430    0.54803    1.000
    N13      N        0.99660    0.60220    0.54976    1.000
    C15      C        0.99610    0.69040    0.57700    1.000
    C16      C        0.04070    0.73090    0.50060    1.000
    H27      H        0.06100    0.77010    0.47140    1.000
    O5       O        0.04180    0.64330    0.38340    1.000
    O6       O        0.08690    0.51130    0.33730    1.000
    C17      C        0.06050    0.60240    0.34150    1.000
    N14      N        0.96700    0.71400    0.62870    1.000
    H28      H        0.96660    0.66350    0.65350    1.000
    H29      H        0.94930    0.78050    0.63720    1.000
    C18      C        0.06800    0.65900    0.28840    1.000
    H30      H        0.12850    0.63400    0.26900    1.000
    H31      H        0.00520    0.64460    0.26770    1.000
    C19      C        0.07700    0.77630    0.29780    1.000
    H32      H        0.00610    0.79310    0.30720    1.000
    H33      H        0.12390    0.79960    0.32510    1.000
    N15      N        0.31400    0.47200    0.37070    1.000
    H34      H        0.25560    0.45220    0.35350    1.000
    H35      H        0.37560    0.47750    0.35340    1.000
    C20      C        0.09100    0.64800    0.24900    1.000
    H36      H        0.16250    0.66350    0.25810    1.000
    H37      H        0.08380    0.57370    0.24260    1.000
    C21      C        0.03500    0.67700    0.29860    1.000
    H38      H        0.05550    0.74780    0.30900    1.000
    H39      H        0.95960    0.67720    0.29250    1.000
    Zn4      Zn       0.43131    0.96266    0.43804    1.000
    N16      N        0.47260    0.86970    0.49900    1.000
    N17      N        0.47720    0.72570    0.54803    1.000
    N18      N        0.50340    0.89780    0.54976    1.000
    C22      C        0.50390    0.80960    0.57700    1.000
    C23      C        0.45930    0.76910    0.50060    1.000
    H40      H        0.43900    0.72990    0.47140    1.000
    O7       O        0.45820    0.85670    0.38340    1.000
    O8       O        0.41310    0.98870    0.33730    1.000
    C24      C        0.43950    0.89760    0.34150    1.000
    N19      N        0.53300    0.78600    0.62870    1.000
    H41      H        0.53340    0.83650    0.65350    1.000
    H42      H        0.55070    0.71950    0.63720    1.000
    C25      C        0.43200    0.84100    0.28840    1.000
    H43      H        0.37150    0.86600    0.26900    1.000
    H44      H        0.49480    0.85540    0.26770    1.000
    C26      C        0.42300    0.72370    0.29780    1.000
    H45      H        0.49390    0.70690    0.30720    1.000
    H46      H        0.37610    0.70040    0.32510    1.000
    N20      N        0.18600    0.02800    0.37070    1.000
    H47      H        0.24440    0.04780    0.35350    1.000
    H48      H        0.12440    0.02250    0.35340    1.000
    C27      C        0.40900    0.85200    0.24900    1.000
    H49      H        0.33750    0.83650    0.25810    1.000
    H50      H        0.41620    0.92630    0.24260    1.000
    C28      C        0.46500    0.82300    0.29860    1.000
    H51      H        0.44450    0.75220    0.30900    1.000
    H52      H        0.54040    0.82280    0.29250    1.000
    Zn5      Zn       0.96266    0.43131    0.06196    1.000
    N21      N        0.86970    0.47260    0.00100    1.000
    N22      N        0.72570    0.47720    0.95197    1.000
    N23      N        0.89780    0.50340    0.95024    1.000
    C29      C        0.80960    0.50390    0.92300    1.000
    C30      C        0.76910    0.45930    0.99940    1.000
    H53      H        0.72990    0.43900    0.02860    1.000
    O9       O        0.85670    0.45820    0.11660    1.000
    O10      O        0.98870    0.41310    0.16270    1.000
    C31      C        0.89760    0.43950    0.15850    1.000
    N24      N        0.78600    0.53300    0.87130    1.000
    H54      H        0.83650    0.53340    0.84650    1.000
    H55      H        0.71950    0.55070    0.86280    1.000
    C32      C        0.84100    0.43200    0.21160    1.000
    H56      H        0.86600    0.37150    0.23100    1.000
    H57      H        0.85540    0.49480    0.23230    1.000
    C33      C        0.72370    0.42300    0.20220    1.000
    H58      H        0.70690    0.49390    0.19280    1.000
    H59      H        0.70040    0.37610    0.17490    1.000
    N25      N        0.02800    0.18600    0.12930    1.000
    H60      H        0.04780    0.24440    0.14650    1.000
    H61      H        0.02250    0.12440    0.14660    1.000
    C34      C        0.85200    0.40900    0.25100    1.000
    H62      H        0.83650    0.33750    0.24190    1.000
    H63      H        0.92630    0.41620    0.25740    1.000
    C35      C        0.82300    0.46500    0.20140    1.000
    H64      H        0.75220    0.44450    0.19100    1.000
    H65      H        0.82280    0.54040    0.20750    1.000
    Zn6      Zn       0.53734    0.06869    0.06196    1.000
    N26      N        0.63030    0.02740    0.00100    1.000
    N27      N        0.77430    0.02280    0.95197    1.000
    N28      N        0.60220    0.99660    0.95024    1.000
    C36      C        0.69040    0.99610    0.92300    1.000
    C37      C        0.73090    0.04070    0.99940    1.000
    H66      H        0.77010    0.06100    0.02860    1.000
    O11      O        0.64330    0.04180    0.11660    1.000
    O12      O        0.51130    0.08690    0.16270    1.000
    C38      C        0.60240    0.06050    0.15850    1.000
    N29      N        0.71400    0.96700    0.87130    1.000
    H67      H        0.66350    0.96660    0.84650    1.000
    H68      H        0.78050    0.94930    0.86280    1.000
    C39      C        0.65900    0.06800    0.21160    1.000
    H69      H        0.63400    0.12850    0.23100    1.000
    H70      H        0.64460    0.00520    0.23230    1.000
    C40      C        0.77630    0.07700    0.20220    1.000
    H71      H        0.79310    0.00610    0.19280    1.000
    H72      H        0.79960    0.12390    0.17490    1.000
    N30      N        0.47200    0.31400    0.12930    1.000
    H73      H        0.45220    0.25560    0.14650    1.000
    H74      H        0.47750    0.37560    0.14660    1.000
    C41      C        0.64800    0.09100    0.25100    1.000
    H75      H        0.66350    0.16250    0.24190    1.000
    H76      H        0.57370    0.08380    0.25740    1.000
    C42      C        0.67700    0.03500    0.20140    1.000
    H77      H        0.74780    0.05550    0.19100    1.000
    H78      H        0.67720    0.95960    0.20750    1.000
    Zn7      Zn       0.43131    0.53734    0.06196    1.000
    N31      N        0.47260    0.63030    0.00100    1.000
    N32      N        0.47720    0.77430    0.95197    1.000
    N33      N        0.50340    0.60220    0.95024    1.000
    C43      C        0.50390    0.69040    0.92300    1.000
    C44      C        0.45930    0.73090    0.99940    1.000
    H79      H        0.43900    0.77010    0.02860    1.000
    O13      O        0.45820    0.64330    0.11660    1.000
    O14      O        0.41310    0.51130    0.16270    1.000
    C45      C        0.43950    0.60240    0.15850    1.000
    N34      N        0.53300    0.71400    0.87130    1.000
    H80      H        0.53340    0.66350    0.84650    1.000
    H81      H        0.55070    0.78050    0.86280    1.000
    C46      C        0.43200    0.65900    0.21160    1.000
    H82      H        0.37150    0.63400    0.23100    1.000
    H83      H        0.49480    0.64460    0.23230    1.000
    C47      C        0.42300    0.77630    0.20220    1.000
    H84      H        0.49390    0.79310    0.19280    1.000
    H85      H        0.37610    0.79960    0.17490    1.000
    N35      N        0.18600    0.47200    0.12930    1.000
    H86      H        0.24440    0.45220    0.14650    1.000
    H87      H        0.12440    0.47750    0.14660    1.000
    C48      C        0.40900    0.64800    0.25100    1.000
    H88      H        0.33750    0.66350    0.24190    1.000
    H89      H        0.41620    0.57370    0.25740    1.000
    C49      C        0.46500    0.67700    0.20140    1.000
    H90      H        0.44450    0.74780    0.19100    1.000
    H91      H        0.54040    0.67720    0.20750    1.000
    Zn8      Zn       0.06869    0.96266    0.06196    1.000
    N36      N        0.02740    0.86970    0.00100    1.000
    N37      N        0.02280    0.72570    0.95197    1.000
    N38      N        0.99660    0.89780    0.95024    1.000
    C50      C        0.99610    0.80960    0.92300    1.000
    C51      C        0.04070    0.76910    0.99940    1.000
    H92      H        0.06100    0.72990    0.02860    1.000
    O15      O        0.04180    0.85670    0.11660    1.000
    O16      O        0.08690    0.98870    0.16270    1.000
    C52      C        0.06050    0.89760    0.15850    1.000
    N39      N        0.96700    0.78600    0.87130    1.000
    H93      H        0.96660    0.83650    0.84650    1.000
    H94      H        0.94930    0.71950    0.86280    1.000
    C53      C        0.06800    0.84100    0.21160    1.000
    H95      H        0.12850    0.86600    0.23100    1.000
    H96      H        0.00520    0.85540    0.23230    1.000
    C54      C        0.07700    0.72370    0.20220    1.000
    H97      H        0.00610    0.70690    0.19280    1.000
    H98      H        0.12390    0.70040    0.17490    1.000
    N40      N        0.31400    0.02800    0.12930    1.000
    H99      H        0.25560    0.04780    0.14650    1.000
    H100     H        0.37560    0.02250    0.14660    1.000
    C55      C        0.09100    0.85200    0.25100    1.000
    H101     H        0.16250    0.83650    0.24190    1.000
    H102     H        0.08380    0.92630    0.25740    1.000
    C56      C        0.03500    0.82300    0.20140    1.000
    H103     H        0.05550    0.75220    0.19100    1.000
    H104     H        0.95960    0.82280    0.20750    1.000
    Zn9      Zn       0.46266    0.56869    0.56196    1.000
    N41      N        0.36970    0.52740    0.50100    1.000
    N42      N        0.22570    0.52280    0.45197    1.000
    N43      N        0.39780    0.49660    0.45024    1.000
    C57      C        0.30960    0.49610    0.42300    1.000
    C58      C        0.26910    0.54070    0.49940    1.000
    H105     H        0.22990    0.56100    0.52860    1.000
    O17      O        0.35670    0.54180    0.61660    1.000
    O18      O        0.48870    0.58690    0.66270    1.000
    C59      C        0.39760    0.56050    0.65850    1.000
    N44      N        0.28600    0.46700    0.37130    1.000
    H106     H        0.33650    0.46660    0.34650    1.000
    H107     H        0.21950    0.44930    0.36280    1.000
    C60      C        0.34100    0.56800    0.71160    1.000
    H108     H        0.36600    0.62850    0.73100    1.000
    H109     H        0.35540    0.50520    0.73230    1.000
    C61      C        0.22370    0.57700    0.70220    1.000
    H110     H        0.20690    0.50610    0.69280    1.000
    H111     H        0.20040    0.62390    0.67490    1.000
    N45      N        0.52800    0.81400    0.62930    1.000
    H112     H        0.54780    0.75560    0.64650    1.000
    H113     H        0.52250    0.87560    0.64660    1.000
    C62      C        0.35200    0.59100    0.75100    1.000
    H114     H        0.33650    0.66250    0.74190    1.000
    H115     H        0.42630    0.58380    0.75740    1.000
    C63      C        0.32300    0.53500    0.70140    1.000
    H116     H        0.25220    0.55550    0.69100    1.000
    H117     H        0.32280    0.45960    0.70750    1.000
    Zn10     Zn       0.03734    0.93131    0.56196    1.000
    N46      N        0.13030    0.97260    0.50100    1.000
    N47      N        0.27430    0.97720    0.45197    1.000
    N48      N        0.10220    0.00340    0.45024    1.000
    C64      C        0.19040    0.00390    0.42300    1.000
    C65      C        0.23090    0.95930    0.49940    1.000
    H118     H        0.27010    0.93900    0.52860    1.000
    O19      O        0.14330    0.95820    0.61660    1.000
    O20      O        0.01130    0.91310    0.66270    1.000
    C66      C        0.10240    0.93950    0.65850    1.000
    N49      N        0.21400    0.03300    0.37130    1.000
    H119     H        0.16350    0.03340    0.34650    1.000
    H120     H        0.28050    0.05070    0.36280    1.000
    C67      C        0.15900    0.93200    0.71160    1.000
    H121     H        0.13400    0.87150    0.73100    1.000
    H122     H        0.14460    0.99480    0.73230    1.000
    C68      C        0.27630    0.92300    0.70220    1.000
    H123     H        0.29310    0.99390    0.69280    1.000
    H124     H        0.29960    0.87610    0.67490    1.000
    N50      N        0.97200    0.68600    0.62930    1.000
    H125     H        0.95220    0.74440    0.64650    1.000
    H126     H        0.97750    0.62440    0.64660    1.000
    C69      C        0.14800    0.90900    0.75100    1.000
    H127     H        0.16350    0.83750    0.74190    1.000
    H128     H        0.07370    0.91620    0.75740    1.000
    C70      C        0.17700    0.96500    0.70140    1.000
    H129     H        0.24780    0.94450    0.69100    1.000
    H130     H        0.17720    0.04040    0.70750    1.000
    Zn11     Zn       0.93131    0.46266    0.56196    1.000
    N51      N        0.97260    0.36970    0.50100    1.000
    N52      N        0.97720    0.22570    0.45197    1.000
    N53      N        0.00340    0.39780    0.45024    1.000
    C71      C        0.00390    0.30960    0.42300    1.000
    C72      C        0.95930    0.26910    0.49940    1.000
    H131     H        0.93900    0.22990    0.52860    1.000
    O21      O        0.95820    0.35670    0.61660    1.000
    O22      O        0.91310    0.48870    0.66270    1.000
    C73      C        0.93950    0.39760    0.65850    1.000
    N54      N        0.03300    0.28600    0.37130    1.000
    H132     H        0.03340    0.33650    0.34650    1.000
    H133     H        0.05070    0.21950    0.36280    1.000
    C74      C        0.93200    0.34100    0.71160    1.000
    H134     H        0.87150    0.36600    0.73100    1.000
    H135     H        0.99480    0.35540    0.73230    1.000
    C75      C        0.92300    0.22370    0.70220    1.000
    H136     H        0.99390    0.20690    0.69280    1.000
    H137     H        0.87610    0.20040    0.67490    1.000
    N55      N        0.68600    0.52800    0.62930    1.000
    H138     H        0.74440    0.54780    0.64650    1.000
    H139     H        0.62440    0.52250    0.64660    1.000
    C76      C        0.90900    0.35200    0.75100    1.000
    H140     H        0.83750    0.33650    0.74190    1.000
    H141     H        0.91620    0.42630    0.75740    1.000
    C77      C        0.96500    0.32300    0.70140    1.000
    H142     H        0.94450    0.25220    0.69100    1.000
    H143     H        0.04040    0.32280    0.70750    1.000
    Zn12     Zn       0.56869    0.03734    0.56196    1.000
    N56      N        0.52740    0.13030    0.50100    1.000
    N57      N        0.52280    0.27430    0.45197    1.000
    N58      N        0.49660    0.10220    0.45024    1.000
    C78      C        0.49610    0.19040    0.42300    1.000
    C79      C        0.54070    0.23090    0.49940    1.000
    H144     H        0.56100    0.27010    0.52860    1.000
    O23      O        0.54180    0.14330    0.61660    1.000
    O24      O        0.58690    0.01130    0.66270    1.000
    C80      C        0.56050    0.10240    0.65850    1.000
    N59      N        0.46700    0.21400    0.37130    1.000
    H145     H        0.46660    0.16350    0.34650    1.000
    H146     H        0.44930    0.28050    0.36280    1.000
    C81      C        0.56800    0.15900    0.71160    1.000
    H147     H        0.62850    0.13400    0.73100    1.000
    H148     H        0.50520    0.14460    0.73230    1.000
    C82      C        0.57700    0.27630    0.70220    1.000
    H149     H        0.50610    0.29310    0.69280    1.000
    H150     H        0.62390    0.29960    0.67490    1.000
    N60      N        0.81400    0.97200    0.62930    1.000
    H151     H        0.75560    0.95220    0.64650    1.000
    H152     H        0.87560    0.97750    0.64660    1.000
    C83      C        0.59100    0.14800    0.75100    1.000
    H153     H        0.66250    0.16350    0.74190    1.000
    H154     H        0.58380    0.07370    0.75740    1.000
    C84      C        0.53500    0.17700    0.70140    1.000
    H155     H        0.55550    0.24780    0.69100    1.000
    H156     H        0.45960    0.17720    0.70750    1.000
    Zn13     Zn       0.03734    0.56869    0.93804    1.000
    N61      N        0.13030    0.52740    0.99900    1.000
    N62      N        0.27430    0.52280    0.04803    1.000
    N63      N        0.10220    0.49660    0.04976    1.000
    C85      C        0.19040    0.49610    0.07700    1.000
    C86      C        0.23090    0.54070    0.00060    1.000
    H157     H        0.27010    0.56100    0.97140    1.000
    O25      O        0.14330    0.54180    0.88340    1.000
    O26      O        0.01130    0.58690    0.83730    1.000
    C87      C        0.10240    0.56050    0.84150    1.000
    N64      N        0.21400    0.46700    0.12870    1.000
    H158     H        0.16350    0.46660    0.15350    1.000
    H159     H        0.28050    0.44930    0.13720    1.000
    C88      C        0.15900    0.56800    0.78840    1.000
    H160     H        0.13400    0.62850    0.76900    1.000
    H161     H        0.14460    0.50520    0.76770    1.000
    C89      C        0.27630    0.57700    0.79780    1.000
    H162     H        0.29310    0.50610    0.80720    1.000
    H163     H        0.29960    0.62390    0.82510    1.000
    N65      N        0.97200    0.81400    0.87070    1.000
    H164     H        0.95220    0.75560    0.85350    1.000
    H165     H        0.97750    0.87560    0.85340    1.000
    C90      C        0.14800    0.59100    0.74900    1.000
    H166     H        0.16350    0.66250    0.75810    1.000
    H167     H        0.07370    0.58380    0.74260    1.000
    C91      C        0.17700    0.53500    0.79860    1.000
    H168     H        0.24780    0.55550    0.80900    1.000
    H169     H        0.17720    0.45960    0.79250    1.000
    Zn14     Zn       0.46266    0.93131    0.93804    1.000
    N66      N        0.36970    0.97260    0.99900    1.000
    N67      N        0.22570    0.97720    0.04803    1.000
    N68      N        0.39780    0.00340    0.04976    1.000
    C92      C        0.30960    0.00390    0.07700    1.000
    C93      C        0.26910    0.95930    0.00060    1.000
    H170     H        0.22990    0.93900    0.97140    1.000
    O27      O        0.35670    0.95820    0.88340    1.000
    O28      O        0.48870    0.91310    0.83730    1.000
    C94      C        0.39760    0.93950    0.84150    1.000
    N69      N        0.28600    0.03300    0.12870    1.000
    H171     H        0.33650    0.03340    0.15350    1.000
    H172     H        0.21950    0.05070    0.13720    1.000
    C95      C        0.34100    0.93200    0.78840    1.000
    H173     H        0.36600    0.87150    0.76900    1.000
    H174     H        0.35540    0.99480    0.76770    1.000
    C96      C        0.22370    0.92300    0.79780    1.000
    H175     H        0.20690    0.99390    0.80720    1.000
    H176     H        0.20040    0.87610    0.82510    1.000
    N70      N        0.52800    0.68600    0.87070    1.000
    H177     H        0.54780    0.74440    0.85350    1.000
    H178     H        0.52250    0.62440    0.85340    1.000
    C97      C        0.35200    0.90900    0.74900    1.000
    H179     H        0.33650    0.83750    0.75810    1.000
    H180     H        0.42630    0.91620    0.74260    1.000
    C98      C        0.32300    0.96500    0.79860    1.000
    H181     H        0.25220    0.94450    0.80900    1.000
    H182     H        0.32280    0.04040    0.79250    1.000
    Zn15     Zn       0.56869    0.46266    0.93804    1.000
    N71      N        0.52740    0.36970    0.99900    1.000
    N72      N        0.52280    0.22570    0.04803    1.000
    N73      N        0.49660    0.39780    0.04976    1.000
    C99      C        0.49610    0.30960    0.07700    1.000
    C100     C        0.54070    0.26910    0.00060    1.000
    H183     H        0.56100    0.22990    0.97140    1.000
    O29      O        0.54180    0.35670    0.88340    1.000
    O30      O        0.58690    0.48870    0.83730    1.000
    C101     C        0.56050    0.39760    0.84150    1.000
    N74      N        0.46700    0.28600    0.12870    1.000
    H184     H        0.46660    0.33650    0.15350    1.000
    H185     H        0.44930    0.21950    0.13720    1.000
    C102     C        0.56800    0.34100    0.78840    1.000
    H186     H        0.62850    0.36600    0.76900    1.000
    H187     H        0.50520    0.35540    0.76770    1.000
    C103     C        0.57700    0.22370    0.79780    1.000
    H188     H        0.50610    0.20690    0.80720    1.000
    H189     H        0.62390    0.20040    0.82510    1.000
    N75      N        0.81400    0.52800    0.87070    1.000
    H190     H        0.75560    0.54780    0.85350    1.000
    H191     H        0.87560    0.52250    0.85340    1.000
    C104     C        0.59100    0.35200    0.74900    1.000
    H192     H        0.66250    0.33650    0.75810    1.000
    H193     H        0.58380    0.42630    0.74260    1.000
    C105     C        0.53500    0.32300    0.79860    1.000
    H194     H        0.55550    0.25220    0.80900    1.000
    H195     H        0.45960    0.32280    0.79250    1.000
    Zn16     Zn       0.93131    0.03734    0.93804    1.000
    N76      N        0.97260    0.13030    0.99900    1.000
    N77      N        0.97720    0.27430    0.04803    1.000
    N78      N        0.00340    0.10220    0.04976    1.000
    C106     C        0.00390    0.19040    0.07700    1.000
    C107     C        0.95930    0.23090    0.00060    1.000
    H196     H        0.93900    0.27010    0.97140    1.000
    O31      O        0.95820    0.14330    0.88340    1.000
    O32      O        0.91310    0.01130    0.83730    1.000
    C108     C        0.93950    0.10240    0.84150    1.000
    N79      N        0.03300    0.21400    0.12870    1.000
    H197     H        0.03340    0.16350    0.15350    1.000
    H198     H        0.05070    0.28050    0.13720    1.000
    C109     C        0.93200    0.15900    0.78840    1.000
    H199     H        0.87150    0.13400    0.76900    1.000
    H200     H        0.99480    0.14460    0.76770    1.000
    C110     C        0.92300    0.27630    0.79780    1.000
    H201     H        0.99390    0.29310    0.80720    1.000
    H202     H        0.87610    0.29960    0.82510    1.000
    N80      N        0.68600    0.97200    0.87070    1.000
    H203     H        0.74440    0.95220    0.85350    1.000
    H204     H        0.62440    0.97750    0.85340    1.000
    C111     C        0.90900    0.14800    0.74900    1.000
    H205     H        0.83750    0.16350    0.75810    1.000
    H206     H        0.91620    0.07370    0.74260    1.000
    C112     C        0.96500    0.17700    0.79860    1.000
    H207     H        0.94450    0.24780    0.80900    1.000
    H208     H        0.04040    0.17720    0.79250    1.000
