# CIF file generated by openbabel 3.1.0, see https://openbabel.org
data_I
_chemical_name_common 'image0'
_cell_length_a 19.86
_cell_length_b 22.14
_cell_length_c 11.6844
_cell_angle_alpha 90
_cell_angle_beta 116.318
_cell_angle_gamma 90
_space_group_name_H-M_alt 'P 1'
_space_group_name_Hall 'P 1'
loop_
    _symmetry_equiv_pos_as_xyz
    x,y,z
loop_
    _atom_site_label
    _atom_site_type_symbol
    _atom_site_fract_x
    _atom_site_fract_y
    _atom_site_fract_z
    _atom_site_occupancy
    Co1      Co       0.31289    0.12295    0.61349    1.000
    N1       N        0.90633    0.31967    0.68700    1.000
    N2       N        0.14070    0.20892    0.97050    1.000
    N3       N        0.28160    0.14144    0.42280    1.000
    O1       O        0.31314    0.12376    0.80240    1.000
    O2       O        0.23248    0.17575    0.64040    1.000
    O3       O        0.23641    0.05012    0.56290    1.000
    O4       O        0.38474    0.05017    0.63930    1.000
    C1       C        0.91850    0.27410    0.62350    1.000
    H1       H        0.88070    0.26420    0.54340    1.000
    C2       C        0.98380    0.24110    0.66990    1.000
    H2       H        0.99010    0.21070    0.62060    1.000
    C3       C        0.04000    0.25340    0.79000    1.000
    C4       C        0.02730    0.29970    0.85960    1.000
    H3       H        0.06330    0.30910    0.94160    1.000
    C5       C        0.96050    0.33110    0.80450    1.000
    H4       H        0.95270    0.36190    0.85140    1.000
    C6       C        0.11180    0.22010    0.84530    1.000
    C7       C        0.14720    0.20360    0.77100    1.000
    H5       H        0.12560    0.21230    0.68410    1.000
    C8       C        0.21550    0.17393    0.82920    1.000
    C9       C        0.24480    0.16011    0.95740    1.000
    H6       H        0.28970    0.13890    0.99750    1.000
    C10      C        0.20600    0.17850    0.02560    1.000
    C11      C        0.32540    0.13040    0.36500    1.000
    H7       H        0.37310    0.11450    0.41340    1.000
    C12      C        0.30340    0.14130    0.23780    1.000
    H8       H        0.33570    0.13270    0.20190    1.000
    C13      C        0.23310    0.16513    0.16300    1.000
    C14      C        0.18870    0.17700    0.22330    1.000
    H9       H        0.14100    0.19340    0.17760    1.000
    C15      C        0.21480    0.16460    0.35090    1.000
    H10      H        0.18350    0.17300    0.38900    1.000
    C16      C        0.25650    0.15689    0.75280    1.000
    Co2      Co       0.81289    0.62295    0.61349    1.000
    N4       N        0.40633    0.81967    0.68700    1.000
    N5       N        0.64070    0.70892    0.97050    1.000
    N6       N        0.78160    0.64144    0.42280    1.000
    O5       O        0.81314    0.62376    0.80240    1.000
    O6       O        0.73248    0.67575    0.64040    1.000
    O7       O        0.73641    0.55012    0.56290    1.000
    O8       O        0.88474    0.55017    0.63930    1.000
    C17      C        0.41850    0.77410    0.62350    1.000
    H11      H        0.38070    0.76420    0.54340    1.000
    C18      C        0.48380    0.74110    0.66990    1.000
    H12      H        0.49010    0.71070    0.62060    1.000
    C19      C        0.54000    0.75340    0.79000    1.000
    C20      C        0.52730    0.79970    0.85960    1.000
    H13      H        0.56330    0.80910    0.94160    1.000
    C21      C        0.46050    0.83110    0.80450    1.000
    H14      H        0.45270    0.86190    0.85140    1.000
    C22      C        0.61180    0.72010    0.84530    1.000
    C23      C        0.64720    0.70360    0.77100    1.000
    H15      H        0.62560    0.71230    0.68410    1.000
    C24      C        0.71550    0.67393    0.82920    1.000
    C25      C        0.74480    0.66011    0.95740    1.000
    H16      H        0.78970    0.63890    0.99750    1.000
    C26      C        0.70600    0.67850    0.02560    1.000
    C27      C        0.82540    0.63040    0.36500    1.000
    H17      H        0.87310    0.61450    0.41340    1.000
    C28      C        0.80340    0.64130    0.23780    1.000
    H18      H        0.83570    0.63270    0.20190    1.000
    C29      C        0.73310    0.66513    0.16300    1.000
    C30      C        0.68870    0.67700    0.22330    1.000
    H19      H        0.64100    0.69340    0.17760    1.000
    C31      C        0.71480    0.66460    0.35090    1.000
    H20      H        0.68350    0.67300    0.38900    1.000
    C32      C        0.75650    0.65689    0.75280    1.000
    Co3      Co       0.31289    0.87705    0.61349    1.000
    N7       N        0.90633    0.68033    0.68700    1.000
    N8       N        0.14070    0.79108    0.97050    1.000
    N9       N        0.28160    0.85856    0.42280    1.000
    O9       O        0.31314    0.87624    0.80240    1.000
    O10      O        0.23248    0.82425    0.64040    1.000
    O11      O        0.23641    0.94988    0.56290    1.000
    O12      O        0.38474    0.94983    0.63930    1.000
    C33      C        0.91850    0.72590    0.62350    1.000
    H21      H        0.88070    0.73580    0.54340    1.000
    C34      C        0.98380    0.75890    0.66990    1.000
    H22      H        0.99010    0.78930    0.62060    1.000
    C35      C        0.04000    0.74660    0.79000    1.000
    C36      C        0.02730    0.70030    0.85960    1.000
    H23      H        0.06330    0.69090    0.94160    1.000
    C37      C        0.96050    0.66890    0.80450    1.000
    H24      H        0.95270    0.63810    0.85140    1.000
    C38      C        0.11180    0.77990    0.84530    1.000
    C39      C        0.14720    0.79640    0.77100    1.000
    H25      H        0.12560    0.78770    0.68410    1.000
    C40      C        0.21550    0.82607    0.82920    1.000
    C41      C        0.24480    0.83989    0.95740    1.000
    H26      H        0.28970    0.86110    0.99750    1.000
    C42      C        0.20600    0.82150    0.02560    1.000
    C43      C        0.32540    0.86960    0.36500    1.000
    H27      H        0.37310    0.88550    0.41340    1.000
    C44      C        0.30340    0.85870    0.23780    1.000
    H28      H        0.33570    0.86730    0.20190    1.000
    C45      C        0.23310    0.83487    0.16300    1.000
    C46      C        0.18870    0.82300    0.22330    1.000
    H29      H        0.14100    0.80660    0.17760    1.000
    C47      C        0.21480    0.83540    0.35090    1.000
    H30      H        0.18350    0.82700    0.38900    1.000
    C48      C        0.25650    0.84311    0.75280    1.000
    Co4      Co       0.81289    0.37705    0.61349    1.000
    N10      N        0.40633    0.18033    0.68700    1.000
    N11      N        0.64070    0.29108    0.97050    1.000
    N12      N        0.78160    0.35856    0.42280    1.000
    O13      O        0.81314    0.37624    0.80240    1.000
    O14      O        0.73248    0.32425    0.64040    1.000
    O15      O        0.73641    0.44988    0.56290    1.000
    O16      O        0.88474    0.44983    0.63930    1.000
    C49      C        0.41850    0.22590    0.62350    1.000
    H31      H        0.38070    0.23580    0.54340    1.000
    C50      C        0.48380    0.25890    0.66990    1.000
    H32      H        0.49010    0.28930    0.62060    1.000
    C51      C        0.54000    0.24660    0.79000    1.000
    C52      C        0.52730    0.20030    0.85960    1.000
    H33      H        0.56330    0.19090    0.94160    1.000
    C53      C        0.46050    0.16890    0.80450    1.000
    H34      H        0.45270    0.13810    0.85140    1.000
    C54      C        0.61180    0.27990    0.84530    1.000
    C55      C        0.64720    0.29640    0.77100    1.000
    H35      H        0.62560    0.28770    0.68410    1.000
    C56      C        0.71550    0.32607    0.82920    1.000
    C57      C        0.74480    0.33989    0.95740    1.000
    H36      H        0.78970    0.36110    0.99750    1.000
    C58      C        0.70600    0.32150    0.02560    1.000
    C59      C        0.82540    0.36960    0.36500    1.000
    H37      H        0.87310    0.38550    0.41340    1.000
    C60      C        0.80340    0.35870    0.23780    1.000
    H38      H        0.83570    0.36730    0.20190    1.000
    C61      C        0.73310    0.33487    0.16300    1.000
    C62      C        0.68870    0.32300    0.22330    1.000
    H39      H        0.64100    0.30660    0.17760    1.000
    C63      C        0.71480    0.33540    0.35090    1.000
    H40      H        0.68350    0.32700    0.38900    1.000
    C64      C        0.75650    0.34311    0.75280    1.000
    C65      C        0.26710    0.00000    0.57860    1.000
    C66      C        0.35320    0.00000    0.62270    1.000
    C67      C        0.76710    0.50000    0.57860    1.000
    C68      C        0.85320    0.50000    0.62270    1.000
    Co5      Co       0.68711    0.12295    0.38651    1.000
    N13      N        0.09367    0.31967    0.31300    1.000
    N14      N        0.85930    0.20892    0.02950    1.000
    N15      N        0.71840    0.14144    0.57720    1.000
    O17      O        0.68686    0.12376    0.19760    1.000
    O18      O        0.76752    0.17575    0.35960    1.000
    O19      O        0.76359    0.05012    0.43710    1.000
    O20      O        0.61526    0.05017    0.36070    1.000
    C69      C        0.08150    0.27410    0.37650    1.000
    H41      H        0.11930    0.26420    0.45660    1.000
    C70      C        0.01620    0.24110    0.33010    1.000
    H42      H        0.00990    0.21070    0.37940    1.000
    C71      C        0.96000    0.25340    0.21000    1.000
    C72      C        0.97270    0.29970    0.14040    1.000
    H43      H        0.93670    0.30910    0.05840    1.000
    C73      C        0.03950    0.33110    0.19550    1.000
    H44      H        0.04730    0.36190    0.14860    1.000
    C74      C        0.88820    0.22010    0.15470    1.000
    C75      C        0.85280    0.20360    0.22900    1.000
    H45      H        0.87440    0.21230    0.31590    1.000
    C76      C        0.78450    0.17393    0.17080    1.000
    C77      C        0.75520    0.16011    0.04260    1.000
    H46      H        0.71030    0.13890    0.00250    1.000
    C78      C        0.79400    0.17850    0.97440    1.000
    C79      C        0.67460    0.13040    0.63500    1.000
    H47      H        0.62690    0.11450    0.58660    1.000
    C80      C        0.69660    0.14130    0.76220    1.000
    H48      H        0.66430    0.13270    0.79810    1.000
    C81      C        0.76690    0.16513    0.83700    1.000
    C82      C        0.81130    0.17700    0.77670    1.000
    H49      H        0.85900    0.19340    0.82240    1.000
    C83      C        0.78520    0.16460    0.64910    1.000
    H50      H        0.81650    0.17300    0.61100    1.000
    C84      C        0.74350    0.15689    0.24720    1.000
    Co6      Co       0.18711    0.62295    0.38651    1.000
    N16      N        0.59367    0.81967    0.31300    1.000
    N17      N        0.35930    0.70892    0.02950    1.000
    N18      N        0.21840    0.64144    0.57720    1.000
    O21      O        0.18686    0.62376    0.19760    1.000
    O22      O        0.26752    0.67575    0.35960    1.000
    O23      O        0.26359    0.55012    0.43710    1.000
    O24      O        0.11526    0.55017    0.36070    1.000
    C85      C        0.58150    0.77410    0.37650    1.000
    H51      H        0.61930    0.76420    0.45660    1.000
    C86      C        0.51620    0.74110    0.33010    1.000
    H52      H        0.50990    0.71070    0.37940    1.000
    C87      C        0.46000    0.75340    0.21000    1.000
    C88      C        0.47270    0.79970    0.14040    1.000
    H53      H        0.43670    0.80910    0.05840    1.000
    C89      C        0.53950    0.83110    0.19550    1.000
    H54      H        0.54730    0.86190    0.14860    1.000
    C90      C        0.38820    0.72010    0.15470    1.000
    C91      C        0.35280    0.70360    0.22900    1.000
    H55      H        0.37440    0.71230    0.31590    1.000
    C92      C        0.28450    0.67393    0.17080    1.000
    C93      C        0.25520    0.66011    0.04260    1.000
    H56      H        0.21030    0.63890    0.00250    1.000
    C94      C        0.29400    0.67850    0.97440    1.000
    C95      C        0.17460    0.63040    0.63500    1.000
    H57      H        0.12690    0.61450    0.58660    1.000
    C96      C        0.19660    0.64130    0.76220    1.000
    H58      H        0.16430    0.63270    0.79810    1.000
    C97      C        0.26690    0.66513    0.83700    1.000
    C98      C        0.31130    0.67700    0.77670    1.000
    H59      H        0.35900    0.69340    0.82240    1.000
    C99      C        0.28520    0.66460    0.64910    1.000
    H60      H        0.31650    0.67300    0.61100    1.000
    C100     C        0.24350    0.65689    0.24720    1.000
    Co7      Co       0.68711    0.87705    0.38651    1.000
    N19      N        0.09367    0.68033    0.31300    1.000
    N20      N        0.85930    0.79108    0.02950    1.000
    N21      N        0.71840    0.85856    0.57720    1.000
    O25      O        0.68686    0.87624    0.19760    1.000
    O26      O        0.76752    0.82425    0.35960    1.000
    O27      O        0.76359    0.94988    0.43710    1.000
    O28      O        0.61526    0.94983    0.36070    1.000
    C101     C        0.08150    0.72590    0.37650    1.000
    H61      H        0.11930    0.73580    0.45660    1.000
    C102     C        0.01620    0.75890    0.33010    1.000
    H62      H        0.00990    0.78930    0.37940    1.000
    C103     C        0.96000    0.74660    0.21000    1.000
    C104     C        0.97270    0.70030    0.14040    1.000
    H63      H        0.93670    0.69090    0.05840    1.000
    C105     C        0.03950    0.66890    0.19550    1.000
    H64      H        0.04730    0.63810    0.14860    1.000
    C106     C        0.88820    0.77990    0.15470    1.000
    C107     C        0.85280    0.79640    0.22900    1.000
    H65      H        0.87440    0.78770    0.31590    1.000
    C108     C        0.78450    0.82607    0.17080    1.000
    C109     C        0.75520    0.83989    0.04260    1.000
    H66      H        0.71030    0.86110    0.00250    1.000
    C110     C        0.79400    0.82150    0.97440    1.000
    C111     C        0.67460    0.86960    0.63500    1.000
    H67      H        0.62690    0.88550    0.58660    1.000
    C112     C        0.69660    0.85870    0.76220    1.000
    H68      H        0.66430    0.86730    0.79810    1.000
    C113     C        0.76690    0.83487    0.83700    1.000
    C114     C        0.81130    0.82300    0.77670    1.000
    H69      H        0.85900    0.80660    0.82240    1.000
    C115     C        0.78520    0.83540    0.64910    1.000
    H70      H        0.81650    0.82700    0.61100    1.000
    C116     C        0.74350    0.84311    0.24720    1.000
    Co8      Co       0.18711    0.37705    0.38651    1.000
    N22      N        0.59367    0.18033    0.31300    1.000
    N23      N        0.35930    0.29108    0.02950    1.000
    N24      N        0.21840    0.35856    0.57720    1.000
    O29      O        0.18686    0.37624    0.19760    1.000
    O30      O        0.26752    0.32425    0.35960    1.000
    O31      O        0.26359    0.44988    0.43710    1.000
    O32      O        0.11526    0.44983    0.36070    1.000
    C117     C        0.58150    0.22590    0.37650    1.000
    H71      H        0.61930    0.23580    0.45660    1.000
    C118     C        0.51620    0.25890    0.33010    1.000
    H72      H        0.50990    0.28930    0.37940    1.000
    C119     C        0.46000    0.24660    0.21000    1.000
    C120     C        0.47270    0.20030    0.14040    1.000
    H73      H        0.43670    0.19090    0.05840    1.000
    C121     C        0.53950    0.16890    0.19550    1.000
    H74      H        0.54730    0.13810    0.14860    1.000
    C122     C        0.38820    0.27990    0.15470    1.000
    C123     C        0.35280    0.29640    0.22900    1.000
    H75      H        0.37440    0.28770    0.31590    1.000
    C124     C        0.28450    0.32607    0.17080    1.000
    C125     C        0.25520    0.33989    0.04260    1.000
    H76      H        0.21030    0.36110    0.00250    1.000
    C126     C        0.29400    0.32150    0.97440    1.000
    C127     C        0.17460    0.36960    0.63500    1.000
    H77      H        0.12690    0.38550    0.58660    1.000
    C128     C        0.19660    0.35870    0.76220    1.000
    H78      H        0.16430    0.36730    0.79810    1.000
    C129     C        0.26690    0.33487    0.83700    1.000
    C130     C        0.31130    0.32300    0.77670    1.000
    H79      H        0.35900    0.30660    0.82240    1.000
    C131     C        0.28520    0.33540    0.64910    1.000
    H80      H        0.31650    0.32700    0.61100    1.000
    C132     C        0.24350    0.34311    0.24720    1.000
    C133     C        0.73290    0.00000    0.42140    1.000
    C134     C        0.64680    0.00000    0.37730    1.000
    C135     C        0.23290    0.50000    0.42140    1.000
    C136     C        0.14680    0.50000    0.37730    1.000
