# CIF file generated by openbabel 3.1.0, see https://openbabel.org
data_I
_chemical_name_common 'image0'
_cell_length_a 8.8547
_cell_length_b 9.9689
_cell_length_c 12.9721
_cell_angle_alpha 97.005
_cell_angle_beta 97.885
_cell_angle_gamma 90.929
_space_group_name_H-M_alt 'P 1'
_space_group_name_Hall 'P 1'
loop_
    _symmetry_equiv_pos_as_xyz
    x,y,z
loop_
    _atom_site_label
    _atom_site_type_symbol
    _atom_site_fract_x
    _atom_site_fract_y
    _atom_site_fract_z
    _atom_site_occupancy
    S1       S        0.93229    0.10138    0.74667    1.000
    O1       O        0.01176    0.04605    0.83903    1.000
    O2       O        0.03052    0.08503    0.66267    1.000
    O3       O        0.78826    0.02169    0.70940    1.000
    O4       O        0.90187    0.24321    0.77319    1.000
    N1       N        0.09987    0.20592    0.07083    1.000
    N2       N        0.21868    0.38017    0.17216    1.000
    N3       N        0.23886    0.91907    0.00046    1.000
    N4       N        0.46679    0.85378    0.06180    1.000
    N5       N        0.92160    0.19578    0.45410    1.000
    N6       N        0.87936    0.36493    0.36095    1.000
    C1       C        0.45170    0.52098    0.24236    1.000
    C2       C        0.45430    0.64230    0.19962    1.000
    H1       H        0.36390    0.68670    0.18420    1.000
    C3       C        0.59090    0.69770    0.17973    1.000
    C4       C        0.72520    0.63167    0.20523    1.000
    H2       H        0.81720    0.66880    0.19310    1.000
    C5       C        0.72440    0.51111    0.24858    1.000
    C6       C        0.58740    0.45535    0.26609    1.000
    H3       H        0.58590    0.37370    0.29380    1.000
    C7       C        0.30270    0.46230    0.26397    1.000
    H4       H        0.32310    0.40690    0.32050    1.000
    H5       H        0.23960    0.53550    0.28710    1.000
    C8       C        0.59900    0.83270    0.13780    1.000
    H6       H        0.60670    0.90470    0.19590    1.000
    H7       H        0.69050    0.83770    0.10480    1.000
    C9       C        0.87570    0.44560    0.27395    1.000
    H8       H        0.95570    0.51560    0.29130    1.000
    H9       H        0.89700    0.38800    0.21210    1.000
    C10      C        0.15530    0.42630    0.08107    1.000
    H10      H        0.16060    0.51450    0.06490    1.000
    C11      C        0.08350    0.31830    0.01938    1.000
    H11      H        0.03110    0.31990    0.95230    1.000
    C12      C        0.18190    0.24667    0.16208    1.000
    H12      H        0.21090    0.19070    0.21320    1.000
    C13      C        0.43960    0.80170    0.95880    1.000
    H13      H        0.50400    0.74840    0.92140    1.000
    C14      C        0.30030    0.84300    0.92168    1.000
    H14      H        0.25280    0.82290    0.85280    1.000
    C15      C        0.34350    0.92310    0.08285    1.000
    H15      H        0.33350    0.96870    0.14840    1.000
    C16      C        0.84640    0.40800    0.45979    1.000
    H16      H        0.81240    0.49250    0.48340    1.000
    C17      C        0.87320    0.30320    0.51604    1.000
    H17      H        0.86080    0.30390    0.58610    1.000
    C18      C        0.92300    0.23710    0.36124    1.000
    H18      H        0.95080    0.18390    0.30330    1.000
    S2       S        0.06771    0.89862    0.25333    1.000
    O5       O        0.98824    0.95395    0.16097    1.000
    O6       O        0.96948    0.91497    0.33733    1.000
    O7       O        0.21174    0.97831    0.29060    1.000
    O8       O        0.09813    0.75679    0.22681    1.000
    N7       N        0.90013    0.79408    0.92917    1.000
    N8       N        0.78132    0.61983    0.82784    1.000
    N9       N        0.76114    0.08093    0.99954    1.000
    N10      N        0.53321    0.14622    0.93820    1.000
    N11      N        0.07840    0.80422    0.54590    1.000
    N12      N        0.12064    0.63507    0.63905    1.000
    C19      C        0.54830    0.47902    0.75764    1.000
    C20      C        0.54570    0.35770    0.80038    1.000
    H19      H        0.63610    0.31330    0.81580    1.000
    C21      C        0.40910    0.30230    0.82027    1.000
    C22      C        0.27480    0.36833    0.79477    1.000
    H20      H        0.18280    0.33120    0.80690    1.000
    C23      C        0.27560    0.48889    0.75142    1.000
    C24      C        0.41260    0.54465    0.73391    1.000
    H21      H        0.41410    0.62630    0.70620    1.000
    C25      C        0.69730    0.53770    0.73603    1.000
    H22      H        0.67690    0.59310    0.67950    1.000
    H23      H        0.76040    0.46450    0.71290    1.000
    C26      C        0.40100    0.16730    0.86220    1.000
    H24      H        0.39330    0.09530    0.80410    1.000
    H25      H        0.30950    0.16230    0.89520    1.000
    C27      C        0.12430    0.55440    0.72605    1.000
    H26      H        0.04430    0.48440    0.70870    1.000
    H27      H        0.10300    0.61200    0.78790    1.000
    C28      C        0.84470    0.57370    0.91893    1.000
    H28      H        0.83940    0.48550    0.93510    1.000
    C29      C        0.91650    0.68170    0.98062    1.000
    H29      H        0.96890    0.68010    0.04770    1.000
    C30      C        0.81810    0.75333    0.83792    1.000
    H30      H        0.78910    0.80930    0.78680    1.000
    C31      C        0.56040    0.19830    0.04120    1.000
    H31      H        0.49600    0.25160    0.07860    1.000
    C32      C        0.69970    0.15700    0.07832    1.000
    H32      H        0.74720    0.17710    0.14720    1.000
    C33      C        0.65650    0.07690    0.91715    1.000
    H33      H        0.66650    0.03130    0.85160    1.000
    C34      C        0.15360    0.59200    0.54021    1.000
    H34      H        0.18760    0.50750    0.51660    1.000
    C35      C        0.12680    0.69680    0.48396    1.000
    H35      H        0.13920    0.69610    0.41390    1.000
    C36      C        0.07700    0.76290    0.63876    1.000
    H36      H        0.04920    0.81610    0.69670    1.000
    Mn1      Mn       0.00000    0.00000    0.00000    1.000
    Mn2      Mn       0.00000    0.00000    0.50000    1.000
