# CIF file generated by openbabel 3.1.0, see https://openbabel.org
data_I
_chemical_name_common 'image0'
_cell_length_a 14.7776
_cell_length_b 12.4094
_cell_length_c 29.9554
_cell_angle_alpha 90
_cell_angle_beta 115.572
_cell_angle_gamma 90
_space_group_name_H-M_alt 'P 1'
_space_group_name_Hall 'P 1'
loop_
    _symmetry_equiv_pos_as_xyz
    x,y,z
loop_
    _atom_site_label
    _atom_site_type_symbol
    _atom_site_fract_x
    _atom_site_fract_y
    _atom_site_fract_z
    _atom_site_occupancy
    Zn1      Zn       0.74719    0.00315    0.76000    1.000
    Zn2      Zn       0.37716    0.68318    0.82478    1.000
    O1       O        0.83860    0.86010    0.73245    1.000
    O2       O        0.83671    0.89330    0.80465    1.000
    O3       O        0.38260    0.80210    0.25697    1.000
    O4       O        0.09350    0.60250    0.72688    1.000
    O5       O        0.61180    0.56160    0.22593    1.000
    O6       O        0.54570    0.46060    0.15705    1.000
    O7       O        0.23938    0.59420    0.79309    1.000
    O8       O        0.27264    0.89620    0.19324    1.000
    C1       C        0.87370    0.84870    0.77793    1.000
    C2       C        0.96680    0.78220    0.80446    1.000
    C3       C        0.01180    0.77660    0.85498    1.000
    H1       H        0.98190    0.81030    0.87290    1.000
    C4       C        0.33610    0.82290    0.21169    1.000
    C5       C        0.35710    0.75290    0.17642    1.000
    C6       C        0.43790    0.68120    0.19481    1.000
    H2       H        0.47880    0.67870    0.22860    1.000
    C7       C        0.29810    0.75830    0.12571    1.000
    H3       H        0.24470    0.80650    0.11360    1.000
    C8       C        0.31640    0.69430    0.09274    1.000
    C9       C        0.25620    0.70350    0.03847    1.000
    C10      C        0.26500    0.79670    0.01399    1.000
    C11      C        0.19290    0.61970    0.01175    1.000
    C12      C        0.54490    0.53840    0.18370    1.000
    C13      C        0.45770    0.61430    0.16335    1.000
    C14      C        0.39680    0.61930    0.11237    1.000
    H4       H        0.40910    0.57320    0.09110    1.000
    C15      C        0.14400    0.62140    0.77086    1.000
    C16      C        0.10020    0.67640    0.80140    1.000
    C17      C        0.01090    0.73130    0.77716    1.000
    H5       H        0.98020    0.73440    0.74280    1.000
    C18      C        0.14680    0.67320    0.85263    1.000
    H6       H        0.20840    0.63890    0.86880    1.000
    C19      C        0.10170    0.72130    0.88000    1.000
    C20      C        0.15260    0.71710    0.93579    1.000
    C21      C        0.14100    0.62610    0.96025    1.000
    C22      C        0.21330    0.80350    0.96255    1.000
    C23      C        0.22130    0.90330    0.93583    1.000
    H7       H        0.22460    0.96570    0.95540    1.000
    H8       H        0.16350    0.90850    0.90450    1.000
    H9       H        0.28080    0.89940    0.93050    1.000
    C24      C        0.06970    0.53770    0.93015    1.000
    H10      H        0.00550    0.54810    0.93030    1.000
    H11      H        0.09620    0.46880    0.94440    1.000
    H12      H        0.06230    0.54020    0.89670    1.000
    C25      C        0.32870    0.89100    0.04281    1.000
    H13      H        0.33060    0.94460    0.02010    1.000
    H14      H        0.39560    0.86650    0.06320    1.000
    H15      H        0.30020    0.92160    0.06330    1.000
    C26      C        0.17720    0.52240    0.03892    1.000
    H16      H        0.19960    0.53960    0.07330    1.000
    H17      H        0.21490    0.46220    0.03570    1.000
    H18      H        0.10720    0.50410    0.02480    1.000
    Zn3      Zn       0.25281    0.50315    0.74000    1.000
    Zn4      Zn       0.62284    0.18318    0.67522    1.000
    O9       O        0.16140    0.36010    0.76755    1.000
    O10      O        0.16329    0.39330    0.69535    1.000
    O11      O        0.61740    0.30210    0.24303    1.000
    O12      O        0.90650    0.10250    0.77312    1.000
    O13      O        0.38820    0.06160    0.27407    1.000
    O14      O        0.45430    0.96060    0.34295    1.000
    O15      O        0.76062    0.09420    0.70691    1.000
    O16      O        0.72736    0.39620    0.30676    1.000
    C27      C        0.12630    0.34870    0.72207    1.000
    C28      C        0.03320    0.28220    0.69554    1.000
    C29      C        0.98820    0.27660    0.64502    1.000
    H19      H        0.01810    0.31030    0.62710    1.000
    C30      C        0.66390    0.32290    0.28831    1.000
    C31      C        0.64290    0.25290    0.32358    1.000
    C32      C        0.56210    0.18120    0.30519    1.000
    H20      H        0.52120    0.17870    0.27140    1.000
    C33      C        0.70190    0.25830    0.37429    1.000
    H21      H        0.75530    0.30650    0.38640    1.000
    C34      C        0.68360    0.19430    0.40726    1.000
    C35      C        0.74380    0.20350    0.46153    1.000
    C36      C        0.73500    0.29670    0.48601    1.000
    C37      C        0.80710    0.11970    0.48825    1.000
    C38      C        0.45510    0.03840    0.31630    1.000
    C39      C        0.54230    0.11430    0.33665    1.000
    C40      C        0.60320    0.11930    0.38763    1.000
    H22      H        0.59090    0.07320    0.40890    1.000
    C41      C        0.85600    0.12140    0.72914    1.000
    C42      C        0.89980    0.17640    0.69860    1.000
    C43      C        0.98910    0.23130    0.72284    1.000
    H23      H        0.01980    0.23440    0.75720    1.000
    C44      C        0.85320    0.17320    0.64737    1.000
    H24      H        0.79160    0.13890    0.63120    1.000
    C45      C        0.89830    0.22130    0.62000    1.000
    C46      C        0.84740    0.21710    0.56421    1.000
    C47      C        0.85900    0.12610    0.53975    1.000
    C48      C        0.78670    0.30350    0.53745    1.000
    C49      C        0.77870    0.40330    0.56417    1.000
    H25      H        0.77540    0.46570    0.54460    1.000
    H26      H        0.83650    0.40850    0.59550    1.000
    H27      H        0.71920    0.39940    0.56950    1.000
    C50      C        0.93030    0.03770    0.56985    1.000
    H28      H        0.99450    0.04810    0.56970    1.000
    H29      H        0.90380    0.96880    0.55560    1.000
    H30      H        0.93770    0.04020    0.60330    1.000
    C51      C        0.67130    0.39100    0.45719    1.000
    H31      H        0.66940    0.44460    0.47990    1.000
    H32      H        0.60440    0.36650    0.43680    1.000
    H33      H        0.69980    0.42160    0.43670    1.000
    C52      C        0.82280    0.02240    0.46108    1.000
    H34      H        0.80040    0.03960    0.42670    1.000
    H35      H        0.78510    0.96220    0.46430    1.000
    H36      H        0.89280    0.00410    0.47520    1.000
    Zn5      Zn       0.25281    0.99685    0.24000    1.000
    Zn6      Zn       0.62284    0.31682    0.17522    1.000
    O17      O        0.16140    0.13990    0.26755    1.000
    O18      O        0.16329    0.10670    0.19535    1.000
    O19      O        0.61740    0.19790    0.74303    1.000
    O20      O        0.90650    0.39750    0.27312    1.000
    O21      O        0.38820    0.43840    0.77407    1.000
    O22      O        0.45430    0.53940    0.84295    1.000
    O23      O        0.76062    0.40580    0.20691    1.000
    O24      O        0.72736    0.10380    0.80676    1.000
    C53      C        0.12630    0.15130    0.22207    1.000
    C54      C        0.03320    0.21780    0.19554    1.000
    C55      C        0.98820    0.22340    0.14502    1.000
    H37      H        0.01810    0.18970    0.12710    1.000
    C56      C        0.66390    0.17710    0.78831    1.000
    C57      C        0.64290    0.24710    0.82358    1.000
    C58      C        0.56210    0.31880    0.80519    1.000
    H38      H        0.52120    0.32130    0.77140    1.000
    C59      C        0.70190    0.24170    0.87429    1.000
    H39      H        0.75530    0.19350    0.88640    1.000
    C60      C        0.68360    0.30570    0.90726    1.000
    C61      C        0.74380    0.29650    0.96153    1.000
    C62      C        0.73500    0.20330    0.98601    1.000
    C63      C        0.80710    0.38030    0.98825    1.000
    C64      C        0.45510    0.46160    0.81630    1.000
    C65      C        0.54230    0.38570    0.83665    1.000
    C66      C        0.60320    0.38070    0.88763    1.000
    H40      H        0.59090    0.42680    0.90890    1.000
    C67      C        0.85600    0.37860    0.22914    1.000
    C68      C        0.89980    0.32360    0.19860    1.000
    C69      C        0.98910    0.26870    0.22284    1.000
    H41      H        0.01980    0.26560    0.25720    1.000
    C70      C        0.85320    0.32680    0.14737    1.000
    H42      H        0.79160    0.36110    0.13120    1.000
    C71      C        0.89830    0.27870    0.12000    1.000
    C72      C        0.84740    0.28290    0.06421    1.000
    C73      C        0.85900    0.37390    0.03975    1.000
    C74      C        0.78670    0.19650    0.03745    1.000
    C75      C        0.77870    0.09670    0.06417    1.000
    H43      H        0.77540    0.03430    0.04460    1.000
    H44      H        0.83650    0.09150    0.09550    1.000
    H45      H        0.71920    0.10060    0.06950    1.000
    C76      C        0.93030    0.46230    0.06985    1.000
    H46      H        0.99450    0.45190    0.06970    1.000
    H47      H        0.90380    0.53120    0.05560    1.000
    H48      H        0.93770    0.45980    0.10330    1.000
    C77      C        0.67130    0.10900    0.95719    1.000
    H49      H        0.66940    0.05540    0.97990    1.000
    H50      H        0.60440    0.13350    0.93680    1.000
    H51      H        0.69980    0.07840    0.93670    1.000
    C78      C        0.82280    0.47760    0.96108    1.000
    H52      H        0.80040    0.46040    0.92670    1.000
    H53      H        0.78510    0.53780    0.96430    1.000
    H54      H        0.89280    0.49590    0.97520    1.000
    Zn7      Zn       0.74719    0.49685    0.26000    1.000
    Zn8      Zn       0.37716    0.81682    0.32478    1.000
    O25      O        0.83860    0.63990    0.23245    1.000
    O26      O        0.83671    0.60670    0.30465    1.000
    O27      O        0.38260    0.69790    0.75697    1.000
    O28      O        0.09350    0.89750    0.22688    1.000
    O29      O        0.61180    0.93840    0.72593    1.000
    O30      O        0.54570    0.03940    0.65705    1.000
    O31      O        0.23938    0.90580    0.29309    1.000
    O32      O        0.27264    0.60380    0.69324    1.000
    C79      C        0.87370    0.65130    0.27793    1.000
    C80      C        0.96680    0.71780    0.30446    1.000
    C81      C        0.01180    0.72340    0.35498    1.000
    H55      H        0.98190    0.68970    0.37290    1.000
    C82      C        0.33610    0.67710    0.71169    1.000
    C83      C        0.35710    0.74710    0.67642    1.000
    C84      C        0.43790    0.81880    0.69481    1.000
    H56      H        0.47880    0.82130    0.72860    1.000
    C85      C        0.29810    0.74170    0.62571    1.000
    H57      H        0.24470    0.69350    0.61360    1.000
    C86      C        0.31640    0.80570    0.59274    1.000
    C87      C        0.25620    0.79650    0.53847    1.000
    C88      C        0.26500    0.70330    0.51399    1.000
    C89      C        0.19290    0.88030    0.51175    1.000
    C90      C        0.54490    0.96160    0.68370    1.000
    C91      C        0.45770    0.88570    0.66335    1.000
    C92      C        0.39680    0.88070    0.61237    1.000
    H58      H        0.40910    0.92680    0.59110    1.000
    C93      C        0.14400    0.87860    0.27086    1.000
    C94      C        0.10020    0.82360    0.30140    1.000
    C95      C        0.01090    0.76870    0.27716    1.000
    H59      H        0.98020    0.76560    0.24280    1.000
    C96      C        0.14680    0.82680    0.35263    1.000
    H60      H        0.20840    0.86110    0.36880    1.000
    C97      C        0.10170    0.77870    0.38000    1.000
    C98      C        0.15260    0.78290    0.43579    1.000
    C99      C        0.14100    0.87390    0.46025    1.000
    C100     C        0.21330    0.69650    0.46255    1.000
    C101     C        0.22130    0.59670    0.43583    1.000
    H61      H        0.22460    0.53430    0.45540    1.000
    H62      H        0.16350    0.59150    0.40450    1.000
    H63      H        0.28080    0.60060    0.43050    1.000
    C102     C        0.06970    0.96230    0.43015    1.000
    H64      H        0.00550    0.95190    0.43030    1.000
    H65      H        0.09620    0.03120    0.44440    1.000
    H66      H        0.06230    0.95980    0.39670    1.000
    C103     C        0.32870    0.60900    0.54281    1.000
    H67      H        0.33060    0.55540    0.52010    1.000
    H68      H        0.39560    0.63350    0.56320    1.000
    H69      H        0.30020    0.57840    0.56330    1.000
    C104     C        0.17720    0.97760    0.53892    1.000
    H70      H        0.19960    0.96040    0.57330    1.000
    H71      H        0.21490    0.03780    0.53570    1.000
    H72      H        0.10720    0.99590    0.52480    1.000
