# CIF file generated by openbabel 3.1.0, see https://openbabel.org
data_I
_chemical_name_common 'image0'
_cell_length_a 25.507
_cell_length_b 25.507
_cell_length_c 25.507
_cell_angle_alpha 90
_cell_angle_beta 90
_cell_angle_gamma 90
_space_group_name_H-M_alt 'P 1'
_space_group_name_Hall 'P 1'
loop_
    _symmetry_equiv_pos_as_xyz
    x,y,z
loop_
    _atom_site_label
    _atom_site_type_symbol
    _atom_site_fract_x
    _atom_site_fract_y
    _atom_site_fract_z
    _atom_site_occupancy
    Zn1      Zn       0.18679    0.82844    0.23266    1.000
    O1       O        0.20145    0.81828    0.15753    1.000
    O2       O        0.18056    0.76601    0.88888    1.000
    O3       O        0.24729    0.70916    0.89816    1.000
    O4       O        0.26084    0.75335    0.16104    1.000
    C1       C        0.22918    0.78255    0.13679    1.000
    C2       C        0.22461    0.77326    0.07947    1.000
    C3       C        0.19482    0.80629    0.04748    1.000
    H1       H        0.17760    0.83590    0.06210    1.000
    C4       C        0.19042    0.79559    0.99423    1.000
    H2       H        0.17030    0.81790    0.97230    1.000
    C5       C        0.24840    0.72920    0.05840    1.000
    H3       H        0.26760    0.70620    0.08050    1.000
    C6       C        0.24430    0.71860    0.00539    1.000
    H4       H        0.26090    0.68860    0.99100    1.000
    C7       C        0.21420    0.74171    0.91543    1.000
    C8       C        0.21574    0.75197    0.97318    1.000
    Zn2      Zn       0.31321    0.17156    0.73266    1.000
    O5       O        0.29855    0.18172    0.65753    1.000
    O6       O        0.31944    0.23399    0.38888    1.000
    O7       O        0.25271    0.29084    0.39816    1.000
    O8       O        0.23916    0.24665    0.66104    1.000
    C9       C        0.27082    0.21745    0.63679    1.000
    C10      C        0.27539    0.22674    0.57947    1.000
    C11      C        0.30518    0.19371    0.54748    1.000
    H5       H        0.32240    0.16410    0.56210    1.000
    C12      C        0.30958    0.20441    0.49423    1.000
    H6       H        0.32970    0.18210    0.47230    1.000
    C13      C        0.25160    0.27080    0.55840    1.000
    H7       H        0.23240    0.29380    0.58050    1.000
    C14      C        0.25570    0.28140    0.50539    1.000
    H8       H        0.23910    0.31140    0.49100    1.000
    C15      C        0.28580    0.25829    0.41543    1.000
    C16      C        0.28426    0.24803    0.47318    1.000
    Zn3      Zn       0.81321    0.32844    0.26734    1.000
    O9       O        0.79855    0.31828    0.34247    1.000
    O10      O        0.81944    0.26601    0.61112    1.000
    O11      O        0.75271    0.20916    0.60184    1.000
    O12      O        0.73916    0.25335    0.33896    1.000
    C17      C        0.77082    0.28255    0.36321    1.000
    C18      C        0.77539    0.27326    0.42053    1.000
    C19      C        0.80518    0.30629    0.45252    1.000
    H9       H        0.82240    0.33590    0.43790    1.000
    C20      C        0.80958    0.29559    0.50577    1.000
    H10      H        0.82970    0.31790    0.52770    1.000
    C21      C        0.75160    0.22920    0.44160    1.000
    H11      H        0.73240    0.20620    0.41950    1.000
    C22      C        0.75570    0.21860    0.49461    1.000
    H12      H        0.73910    0.18860    0.50900    1.000
    C23      C        0.78580    0.24171    0.58457    1.000
    C24      C        0.78426    0.25197    0.52682    1.000
    Zn4      Zn       0.68679    0.67156    0.76734    1.000
    O13      O        0.70145    0.68172    0.84247    1.000
    O14      O        0.68056    0.73399    0.11112    1.000
    O15      O        0.74729    0.79084    0.10184    1.000
    O16      O        0.76084    0.74665    0.83896    1.000
    C25      C        0.72918    0.71745    0.86321    1.000
    C26      C        0.72461    0.72674    0.92053    1.000
    C27      C        0.69482    0.69371    0.95252    1.000
    H13      H        0.67760    0.66410    0.93790    1.000
    C28      C        0.69042    0.70441    0.00577    1.000
    H14      H        0.67030    0.68210    0.02770    1.000
    C29      C        0.74840    0.77080    0.94160    1.000
    H15      H        0.76760    0.79380    0.91950    1.000
    C30      C        0.74430    0.78140    0.99461    1.000
    H16      H        0.76090    0.81140    0.00900    1.000
    C31      C        0.71420    0.75829    0.08457    1.000
    C32      C        0.71574    0.74803    0.02682    1.000
    Zn5      Zn       0.23266    0.18679    0.82844    1.000
    O17      O        0.15753    0.20145    0.81828    1.000
    O18      O        0.88888    0.18056    0.76601    1.000
    O19      O        0.89816    0.24729    0.70916    1.000
    O20      O        0.16104    0.26084    0.75335    1.000
    C33      C        0.13679    0.22918    0.78255    1.000
    C34      C        0.07947    0.22461    0.77326    1.000
    C35      C        0.04748    0.19482    0.80629    1.000
    H17      H        0.06210    0.17760    0.83590    1.000
    C36      C        0.99423    0.19042    0.79559    1.000
    H18      H        0.97230    0.17030    0.81790    1.000
    C37      C        0.05840    0.24840    0.72920    1.000
    H19      H        0.08050    0.26760    0.70620    1.000
    C38      C        0.00539    0.24430    0.71860    1.000
    H20      H        0.99100    0.26090    0.68860    1.000
    C39      C        0.91543    0.21420    0.74171    1.000
    C40      C        0.97318    0.21574    0.75197    1.000
    Zn6      Zn       0.73266    0.31321    0.17156    1.000
    O21      O        0.65753    0.29855    0.18172    1.000
    O22      O        0.38888    0.31944    0.23399    1.000
    O23      O        0.39816    0.25271    0.29084    1.000
    O24      O        0.66104    0.23916    0.24665    1.000
    C41      C        0.63679    0.27082    0.21745    1.000
    C42      C        0.57947    0.27539    0.22674    1.000
    C43      C        0.54748    0.30518    0.19371    1.000
    H21      H        0.56210    0.32240    0.16410    1.000
    C44      C        0.49423    0.30958    0.20441    1.000
    H22      H        0.47230    0.32970    0.18210    1.000
    C45      C        0.55840    0.25160    0.27080    1.000
    H23      H        0.58050    0.23240    0.29380    1.000
    C46      C        0.50539    0.25570    0.28140    1.000
    H24      H        0.49100    0.23910    0.31140    1.000
    C47      C        0.41543    0.28580    0.25829    1.000
    C48      C        0.47318    0.28426    0.24803    1.000
    Zn7      Zn       0.26734    0.81321    0.32844    1.000
    O25      O        0.34247    0.79855    0.31828    1.000
    O26      O        0.61112    0.81944    0.26601    1.000
    O27      O        0.60184    0.75271    0.20916    1.000
    O28      O        0.33896    0.73916    0.25335    1.000
    C49      C        0.36321    0.77082    0.28255    1.000
    C50      C        0.42053    0.77539    0.27326    1.000
    C51      C        0.45252    0.80518    0.30629    1.000
    H25      H        0.43790    0.82240    0.33590    1.000
    C52      C        0.50577    0.80958    0.29559    1.000
    H26      H        0.52770    0.82970    0.31790    1.000
    C53      C        0.44160    0.75160    0.22920    1.000
    H27      H        0.41950    0.73240    0.20620    1.000
    C54      C        0.49461    0.75570    0.21860    1.000
    H28      H        0.50900    0.73910    0.18860    1.000
    C55      C        0.58457    0.78580    0.24171    1.000
    C56      C        0.52682    0.78426    0.25197    1.000
    Zn8      Zn       0.76734    0.68679    0.67156    1.000
    O29      O        0.84247    0.70145    0.68172    1.000
    O30      O        0.11112    0.68056    0.73399    1.000
    O31      O        0.10184    0.74729    0.79084    1.000
    O32      O        0.83896    0.76084    0.74665    1.000
    C57      C        0.86321    0.72918    0.71745    1.000
    C58      C        0.92053    0.72461    0.72674    1.000
    C59      C        0.95252    0.69482    0.69371    1.000
    H29      H        0.93790    0.67760    0.66410    1.000
    C60      C        0.00577    0.69042    0.70441    1.000
    H30      H        0.02770    0.67030    0.68210    1.000
    C61      C        0.94160    0.74840    0.77080    1.000
    H31      H        0.91950    0.76760    0.79380    1.000
    C62      C        0.99461    0.74430    0.78140    1.000
    H32      H        0.00900    0.76090    0.81140    1.000
    C63      C        0.08457    0.71420    0.75829    1.000
    C64      C        0.02682    0.71574    0.74803    1.000
    Zn9      Zn       0.82844    0.23266    0.18679    1.000
    O33      O        0.81828    0.15753    0.20145    1.000
    O34      O        0.76601    0.88888    0.18056    1.000
    O35      O        0.70916    0.89816    0.24729    1.000
    O36      O        0.75335    0.16104    0.26084    1.000
    C65      C        0.78255    0.13679    0.22918    1.000
    C66      C        0.77326    0.07947    0.22461    1.000
    C67      C        0.80629    0.04748    0.19482    1.000
    H33      H        0.83590    0.06210    0.17760    1.000
    C68      C        0.79559    0.99423    0.19042    1.000
    H34      H        0.81790    0.97230    0.17030    1.000
    C69      C        0.72920    0.05840    0.24840    1.000
    H35      H        0.70620    0.08050    0.26760    1.000
    C70      C        0.71860    0.00539    0.24430    1.000
    H36      H        0.68860    0.99100    0.26090    1.000
    C71      C        0.74171    0.91543    0.21420    1.000
    C72      C        0.75197    0.97318    0.21574    1.000
    Zn10     Zn       0.17156    0.73266    0.31321    1.000
    O37      O        0.18172    0.65753    0.29855    1.000
    O38      O        0.23399    0.38888    0.31944    1.000
    O39      O        0.29084    0.39816    0.25271    1.000
    O40      O        0.24665    0.66104    0.23916    1.000
    C73      C        0.21745    0.63679    0.27082    1.000
    C74      C        0.22674    0.57947    0.27539    1.000
    C75      C        0.19371    0.54748    0.30518    1.000
    H37      H        0.16410    0.56210    0.32240    1.000
    C76      C        0.20441    0.49423    0.30958    1.000
    H38      H        0.18210    0.47230    0.32970    1.000
    C77      C        0.27080    0.55840    0.25160    1.000
    H39      H        0.29380    0.58050    0.23240    1.000
    C78      C        0.28140    0.50539    0.25570    1.000
    H40      H        0.31140    0.49100    0.23910    1.000
    C79      C        0.25829    0.41543    0.28580    1.000
    C80      C        0.24803    0.47318    0.28426    1.000
    Zn11     Zn       0.32844    0.26734    0.81321    1.000
    O41      O        0.31828    0.34247    0.79855    1.000
    O42      O        0.26601    0.61112    0.81944    1.000
    O43      O        0.20916    0.60184    0.75271    1.000
    O44      O        0.25335    0.33896    0.73916    1.000
    C81      C        0.28255    0.36321    0.77082    1.000
    C82      C        0.27326    0.42053    0.77539    1.000
    C83      C        0.30629    0.45252    0.80518    1.000
    H41      H        0.33590    0.43790    0.82240    1.000
    C84      C        0.29559    0.50577    0.80958    1.000
    H42      H        0.31790    0.52770    0.82970    1.000
    C85      C        0.22920    0.44160    0.75160    1.000
    H43      H        0.20620    0.41950    0.73240    1.000
    C86      C        0.21860    0.49461    0.75570    1.000
    H44      H        0.18860    0.50900    0.73910    1.000
    C87      C        0.24171    0.58457    0.78580    1.000
    C88      C        0.25197    0.52682    0.78426    1.000
    Zn12     Zn       0.67156    0.76734    0.68679    1.000
    O45      O        0.68172    0.84247    0.70145    1.000
    O46      O        0.73399    0.11112    0.68056    1.000
    O47      O        0.79084    0.10184    0.74729    1.000
    O48      O        0.74665    0.83896    0.76084    1.000
    C89      C        0.71745    0.86321    0.72918    1.000
    C90      C        0.72674    0.92053    0.72461    1.000
    C91      C        0.69371    0.95252    0.69482    1.000
    H45      H        0.66410    0.93790    0.67760    1.000
    C92      C        0.70441    0.00577    0.69042    1.000
    H46      H        0.68210    0.02770    0.67030    1.000
    C93      C        0.77080    0.94160    0.74840    1.000
    H47      H        0.79380    0.91950    0.76760    1.000
    C94      C        0.78140    0.99461    0.74430    1.000
    H48      H        0.81140    0.00900    0.76090    1.000
    C95      C        0.75829    0.08457    0.71420    1.000
    C96      C        0.74803    0.02682    0.71574    1.000
    Zn13     Zn       0.81321    0.17156    0.76734    1.000
    O49      O        0.79855    0.18172    0.84247    1.000
    O50      O        0.81944    0.23399    0.11112    1.000
    O51      O        0.75271    0.29084    0.10184    1.000
    O52      O        0.73916    0.24665    0.83896    1.000
    C97      C        0.77082    0.21745    0.86321    1.000
    C98      C        0.77539    0.22674    0.92053    1.000
    C99      C        0.80518    0.19371    0.95252    1.000
    H49      H        0.82240    0.16410    0.93790    1.000
    C100     C        0.80958    0.20441    0.00577    1.000
    H50      H        0.82970    0.18210    0.02770    1.000
    C101     C        0.75160    0.27080    0.94160    1.000
    H51      H        0.73240    0.29380    0.91950    1.000
    C102     C        0.75570    0.28140    0.99461    1.000
    H52      H        0.73910    0.31140    0.00900    1.000
    C103     C        0.78580    0.25829    0.08457    1.000
    C104     C        0.78426    0.24803    0.02682    1.000
    Zn14     Zn       0.68679    0.82844    0.26734    1.000
    O53      O        0.70145    0.81828    0.34247    1.000
    O54      O        0.68056    0.76601    0.61112    1.000
    O55      O        0.74729    0.70916    0.60184    1.000
    O56      O        0.76084    0.75335    0.33896    1.000
    C105     C        0.72918    0.78255    0.36321    1.000
    C106     C        0.72461    0.77326    0.42053    1.000
    C107     C        0.69482    0.80629    0.45252    1.000
    H53      H        0.67760    0.83590    0.43790    1.000
    C108     C        0.69042    0.79559    0.50577    1.000
    H54      H        0.67030    0.81790    0.52770    1.000
    C109     C        0.74840    0.72920    0.44160    1.000
    H55      H        0.76760    0.70620    0.41950    1.000
    C110     C        0.74430    0.71860    0.49461    1.000
    H56      H        0.76090    0.68860    0.50900    1.000
    C111     C        0.71420    0.74171    0.58457    1.000
    C112     C        0.71574    0.75197    0.52682    1.000
    Zn15     Zn       0.18679    0.67156    0.73266    1.000
    O57      O        0.20145    0.68172    0.65753    1.000
    O58      O        0.18056    0.73399    0.38888    1.000
    O59      O        0.24729    0.79084    0.39816    1.000
    O60      O        0.26084    0.74665    0.66104    1.000
    C113     C        0.22918    0.71745    0.63679    1.000
    C114     C        0.22461    0.72674    0.57947    1.000
    C115     C        0.19482    0.69371    0.54748    1.000
    H57      H        0.17760    0.66410    0.56210    1.000
    C116     C        0.19042    0.70441    0.49423    1.000
    H58      H        0.17030    0.68210    0.47230    1.000
    C117     C        0.24840    0.77080    0.55840    1.000
    H59      H        0.26760    0.79380    0.58050    1.000
    C118     C        0.24430    0.78140    0.50539    1.000
    H60      H        0.26090    0.81140    0.49100    1.000
    C119     C        0.21420    0.75829    0.41543    1.000
    C120     C        0.21574    0.74803    0.47318    1.000
    Zn16     Zn       0.31321    0.32844    0.23266    1.000
    O61      O        0.29855    0.31828    0.15753    1.000
    O62      O        0.31944    0.26601    0.88888    1.000
    O63      O        0.25271    0.20916    0.89816    1.000
    O64      O        0.23916    0.25335    0.16104    1.000
    C121     C        0.27082    0.28255    0.13679    1.000
    C122     C        0.27539    0.27326    0.07947    1.000
    C123     C        0.30518    0.30629    0.04748    1.000
    H61      H        0.32240    0.33590    0.06210    1.000
    C124     C        0.30958    0.29559    0.99423    1.000
    H62      H        0.32970    0.31790    0.97230    1.000
    C125     C        0.25160    0.22920    0.05840    1.000
    H63      H        0.23240    0.20620    0.08050    1.000
    C126     C        0.25570    0.21860    0.00539    1.000
    H64      H        0.23910    0.18860    0.99100    1.000
    C127     C        0.28580    0.24171    0.91543    1.000
    C128     C        0.28426    0.25197    0.97318    1.000
    Zn17     Zn       0.76734    0.81321    0.17156    1.000
    O65      O        0.84247    0.79855    0.18172    1.000
    O66      O        0.11112    0.81944    0.23399    1.000
    O67      O        0.10184    0.75271    0.29084    1.000
    O68      O        0.83896    0.73916    0.24665    1.000
    C129     C        0.86321    0.77082    0.21745    1.000
    C130     C        0.92053    0.77539    0.22674    1.000
    C131     C        0.95252    0.80518    0.19371    1.000
    H65      H        0.93790    0.82240    0.16410    1.000
    C132     C        0.00577    0.80958    0.20441    1.000
    H66      H        0.02770    0.82970    0.18210    1.000
    C133     C        0.94160    0.75160    0.27080    1.000
    H67      H        0.91950    0.73240    0.29380    1.000
    C134     C        0.99461    0.75570    0.28140    1.000
    H68      H        0.00900    0.73910    0.31140    1.000
    C135     C        0.08457    0.78580    0.25829    1.000
    C136     C        0.02682    0.78426    0.24803    1.000
    Zn18     Zn       0.26734    0.68679    0.82844    1.000
    O69      O        0.34247    0.70145    0.81828    1.000
    O70      O        0.61112    0.68056    0.76601    1.000
    O71      O        0.60184    0.74729    0.70916    1.000
    O72      O        0.33896    0.76084    0.75335    1.000
    C137     C        0.36321    0.72918    0.78255    1.000
    C138     C        0.42053    0.72461    0.77326    1.000
    C139     C        0.45252    0.69482    0.80629    1.000
    H69      H        0.43790    0.67760    0.83590    1.000
    C140     C        0.50577    0.69042    0.79559    1.000
    H70      H        0.52770    0.67030    0.81790    1.000
    C141     C        0.44160    0.74840    0.72920    1.000
    H71      H        0.41950    0.76760    0.70620    1.000
    C142     C        0.49461    0.74430    0.71860    1.000
    H72      H        0.50900    0.76090    0.68860    1.000
    C143     C        0.58457    0.71420    0.74171    1.000
    C144     C        0.52682    0.71574    0.75197    1.000
    Zn19     Zn       0.73266    0.18679    0.67156    1.000
    O73      O        0.65753    0.20145    0.68172    1.000
    O74      O        0.38888    0.18056    0.73399    1.000
    O75      O        0.39816    0.24729    0.79084    1.000
    O76      O        0.66104    0.26084    0.74665    1.000
    C145     C        0.63679    0.22918    0.71745    1.000
    C146     C        0.57947    0.22461    0.72674    1.000
    C147     C        0.54748    0.19482    0.69371    1.000
    H73      H        0.56210    0.17760    0.66410    1.000
    C148     C        0.49423    0.19042    0.70441    1.000
    H74      H        0.47230    0.17030    0.68210    1.000
    C149     C        0.55840    0.24840    0.77080    1.000
    H75      H        0.58050    0.26760    0.79380    1.000
    C150     C        0.50539    0.24430    0.78140    1.000
    H76      H        0.49100    0.26090    0.81140    1.000
    C151     C        0.41543    0.21420    0.75829    1.000
    C152     C        0.47318    0.21574    0.74803    1.000
    Zn20     Zn       0.23266    0.31321    0.32844    1.000
    O77      O        0.15753    0.29855    0.31828    1.000
    O78      O        0.88888    0.31944    0.26601    1.000
    O79      O        0.89816    0.25271    0.20916    1.000
    O80      O        0.16104    0.23916    0.25335    1.000
    C153     C        0.13679    0.27082    0.28255    1.000
    C154     C        0.07947    0.27539    0.27326    1.000
    C155     C        0.04748    0.30518    0.30629    1.000
    H77      H        0.06210    0.32240    0.33590    1.000
    C156     C        0.99423    0.30958    0.29559    1.000
    H78      H        0.97230    0.32970    0.31790    1.000
    C157     C        0.05840    0.25160    0.22920    1.000
    H79      H        0.08050    0.23240    0.20620    1.000
    C158     C        0.00539    0.25570    0.21860    1.000
    H80      H        0.99100    0.23910    0.18860    1.000
    C159     C        0.91543    0.28580    0.24171    1.000
    C160     C        0.97318    0.28426    0.25197    1.000
    Zn21     Zn       0.17156    0.76734    0.81321    1.000
    O81      O        0.18172    0.84247    0.79855    1.000
    O82      O        0.23399    0.11112    0.81944    1.000
    O83      O        0.29084    0.10184    0.75271    1.000
    O84      O        0.24665    0.83896    0.73916    1.000
    C161     C        0.21745    0.86321    0.77082    1.000
    C162     C        0.22674    0.92053    0.77539    1.000
    C163     C        0.19371    0.95252    0.80518    1.000
    H81      H        0.16410    0.93790    0.82240    1.000
    C164     C        0.20441    0.00577    0.80958    1.000
    H82      H        0.18210    0.02770    0.82970    1.000
    C165     C        0.27080    0.94160    0.75160    1.000
    H83      H        0.29380    0.91950    0.73240    1.000
    C166     C        0.28140    0.99461    0.75570    1.000
    H84      H        0.31140    0.00900    0.73910    1.000
    C167     C        0.25829    0.08457    0.78580    1.000
    C168     C        0.24803    0.02682    0.78426    1.000
    Zn22     Zn       0.82844    0.26734    0.68679    1.000
    O85      O        0.81828    0.34247    0.70145    1.000
    O86      O        0.76601    0.61112    0.68056    1.000
    O87      O        0.70916    0.60184    0.74729    1.000
    O88      O        0.75335    0.33896    0.76084    1.000
    C169     C        0.78255    0.36321    0.72918    1.000
    C170     C        0.77326    0.42053    0.72461    1.000
    C171     C        0.80629    0.45252    0.69482    1.000
    H85      H        0.83590    0.43790    0.67760    1.000
    C172     C        0.79559    0.50577    0.69042    1.000
    H86      H        0.81790    0.52770    0.67030    1.000
    C173     C        0.72920    0.44160    0.74840    1.000
    H87      H        0.70620    0.41950    0.76760    1.000
    C174     C        0.71860    0.49461    0.74430    1.000
    H88      H        0.68860    0.50900    0.76090    1.000
    C175     C        0.74171    0.58457    0.71420    1.000
    C176     C        0.75197    0.52682    0.71574    1.000
    Zn23     Zn       0.67156    0.73266    0.18679    1.000
    O89      O        0.68172    0.65753    0.20145    1.000
    O90      O        0.73399    0.38888    0.18056    1.000
    O91      O        0.79084    0.39816    0.24729    1.000
    O92      O        0.74665    0.66104    0.26084    1.000
    C177     C        0.71745    0.63679    0.22918    1.000
    C178     C        0.72674    0.57947    0.22461    1.000
    C179     C        0.69371    0.54748    0.19482    1.000
    H89      H        0.66410    0.56210    0.17760    1.000
    C180     C        0.70441    0.49423    0.19042    1.000
    H90      H        0.68210    0.47230    0.17030    1.000
    C181     C        0.77080    0.55840    0.24840    1.000
    H91      H        0.79380    0.58050    0.26760    1.000
    C182     C        0.78140    0.50539    0.24430    1.000
    H92      H        0.81140    0.49100    0.26090    1.000
    C183     C        0.75829    0.41543    0.21420    1.000
    C184     C        0.74803    0.47318    0.21574    1.000
    Zn24     Zn       0.32844    0.23266    0.31321    1.000
    O93      O        0.31828    0.15753    0.29855    1.000
    O94      O        0.26601    0.88888    0.31944    1.000
    O95      O        0.20916    0.89816    0.25271    1.000
    O96      O        0.25335    0.16104    0.23916    1.000
    C185     C        0.28255    0.13679    0.27082    1.000
    C186     C        0.27326    0.07947    0.27539    1.000
    C187     C        0.30629    0.04748    0.30518    1.000
    H93      H        0.33590    0.06210    0.32240    1.000
    C188     C        0.29559    0.99423    0.30958    1.000
    H94      H        0.31790    0.97230    0.32970    1.000
    C189     C        0.22920    0.05840    0.25160    1.000
    H95      H        0.20620    0.08050    0.23240    1.000
    C190     C        0.21860    0.00539    0.25570    1.000
    H96      H        0.18860    0.99100    0.23910    1.000
    C191     C        0.24171    0.91543    0.28580    1.000
    C192     C        0.25197    0.97318    0.28426    1.000
    Zn25     Zn       0.26611    0.73389    0.23389    1.000
    O97      O        0.22230    0.77770    0.27770    1.000
    Zn26     Zn       0.23389    0.26611    0.73389    1.000
    O98      O        0.27770    0.22230    0.77770    1.000
    Zn27     Zn       0.73389    0.23389    0.26611    1.000
    O99      O        0.77770    0.27770    0.22230    1.000
    Zn28     Zn       0.76611    0.76611    0.76611    1.000
    O100     O        0.72230    0.72230    0.72230    1.000
    Zn29     Zn       0.73389    0.26611    0.76611    1.000
    O101     O        0.77770    0.22230    0.72230    1.000
    Zn30     Zn       0.76611    0.73389    0.26611    1.000
    O102     O        0.72230    0.77770    0.22230    1.000
    Zn31     Zn       0.26611    0.76611    0.73389    1.000
    O103     O        0.22230    0.72230    0.77770    1.000
    Zn32     Zn       0.23389    0.23389    0.23389    1.000
    O104     O        0.27770    0.27770    0.27770    1.000
