# CIF file generated by openbabel 3.1.0, see https://openbabel.org
data_I
_chemical_name_common 'image0'
_cell_length_a 17.85
_cell_length_b 17.85
_cell_length_c 13.064
_cell_angle_alpha 90
_cell_angle_beta 90
_cell_angle_gamma 120
_space_group_name_H-M_alt 'P 1'
_space_group_name_Hall 'P 1'
loop_
    _symmetry_equiv_pos_as_xyz
    x,y,z
loop_
    _atom_site_label
    _atom_site_type_symbol
    _atom_site_fract_x
    _atom_site_fract_y
    _atom_site_fract_z
    _atom_site_occupancy
    Cu1      Cu       0.58090    0.44520    0.13214    1.000
    Cu2      Cu       0.57940    0.44410    0.38840    1.000
    O1       O        0.64180    0.46610    0.25340    1.000
    O2       O        0.55640    0.32170    0.13730    1.000
    O3       O        0.49470    0.20000    0.03050    1.000
    O4       O        0.43680    0.67460    0.89240    1.000
    O5       O        0.51490    0.80500    0.96600    1.000
    O6       O        0.42400    0.44620    0.90500    1.000
    O7       O        0.57160    0.55600    0.11310    1.000
    N1       N        0.50450    0.40470    0.01050    1.000
    N2       N        0.50940    0.60200    0.98860    1.000
    C1       C        0.50230    0.27080    0.06100    1.000
    C2       C        0.48900    0.45800    0.99100    1.000
    C3       C        0.52770    0.54510    0.03960    1.000
    C4       C        0.47800    0.71400    0.96700    1.000
    C5       C        0.52080    0.68300    0.03800    1.000
    H1       H        0.58110    0.72650    0.05920    1.000
    C6       C        0.45250    0.65420    0.12030    1.000
    H2       H        0.44290    0.70360    0.10840    1.000
    H3       H        0.49560    0.67530    0.17630    1.000
    C7       C        0.37700    0.61000    0.19300    1.000
    H4       H        0.32530    0.59190    0.14950    1.000
    H5       H        0.38100    0.65770    0.23640    1.000
    C8       C        0.28300    0.41600    0.21400    1.000
    H6       H        0.30540    0.42320    0.14390    1.000
    H7       H        0.22180    0.39990    0.21160    1.000
    H8       H        0.28860    0.37030    0.24840    1.000
    S1       S        0.32000    0.18170    0.20000    1.000
    C9       C        0.45250    0.31110    0.00200    1.000
    H9       H        0.46560    0.30330    0.93000    1.000
    C10      C        0.36300    0.24500    0.00700    1.000
    H10      H        0.35340    0.22550    0.93510    1.000
    H11      H        0.33600    0.28210    0.01190    1.000
    C11      C        0.29190    0.16370    0.05800    1.000
    H12      H        0.29260    0.11170    0.03270    1.000
    H13      H        0.23420    0.15680    0.04490    1.000
    C12      C        0.23800    0.21900    0.17500    1.000
    H14      H        0.26840    0.27980    0.15440    1.000
    H15      H        0.20450    0.21190    0.23740    1.000
    H16      H        0.19840    0.18380    0.12000    1.000
    S2       S        0.34470    0.51790    0.28420    1.000
    Cu3      Cu       0.55480    0.13570    0.13214    1.000
    Cu4      Cu       0.55590    0.13530    0.38840    1.000
    O8       O        0.53390    0.17570    0.25340    1.000
    O9       O        0.67830    0.23470    0.13730    1.000
    O10      O        0.80000    0.29470    0.03050    1.000
    O11      O        0.32540    0.76220    0.89240    1.000
    O12      O        0.19500    0.70990    0.96600    1.000
    O13      O        0.55380    0.97780    0.90500    1.000
    O14      O        0.44400    0.01560    0.11310    1.000
    N3       N        0.59530    0.09980    0.01050    1.000
    N4       N        0.39800    0.90740    0.98860    1.000
    C13      C        0.72920    0.23150    0.06100    1.000
    C14      C        0.54200    0.03100    0.99100    1.000
    C15      C        0.45490    0.98260    0.03960    1.000
    C16      C        0.28600    0.76400    0.96700    1.000
    C17      C        0.31700    0.83780    0.03800    1.000
    H17      H        0.27350    0.85460    0.05920    1.000
    C18      C        0.34580    0.79830    0.12030    1.000
    H18      H        0.29640    0.73930    0.10840    1.000
    H19      H        0.32470    0.82030    0.17630    1.000
    C19      C        0.39000    0.76700    0.19300    1.000
    H20      H        0.40810    0.73340    0.14950    1.000
    H21      H        0.34230    0.72330    0.23640    1.000
    C20      C        0.58400    0.86700    0.21400    1.000
    H22      H        0.57680    0.88220    0.14390    1.000
    H23      H        0.60010    0.82190    0.21160    1.000
    H24      H        0.62970    0.91830    0.24840    1.000
    S3       S        0.81830    0.13830    0.20000    1.000
    C21      C        0.68890    0.14140    0.00200    1.000
    H25      H        0.69670    0.16230    0.93000    1.000
    C22      C        0.75500    0.11800    0.00700    1.000
    H26      H        0.77450    0.12790    0.93510    1.000
    H27      H        0.71790    0.05390    0.01190    1.000
    C23      C        0.83630    0.12820    0.05800    1.000
    H28      H        0.88830    0.18090    0.03270    1.000
    H29      H        0.84320    0.07740    0.04490    1.000
    C24      C        0.78100    0.01900    0.17500    1.000
    H30      H        0.72020    0.98860    0.15440    1.000
    H31      H        0.78810    0.99260    0.23740    1.000
    H32      H        0.81620    0.01460    0.12000    1.000
    S4       S        0.48210    0.82680    0.28420    1.000
    Cu5      Cu       0.86430    0.41910    0.13214    1.000
    Cu6      Cu       0.86470    0.42060    0.38840    1.000
    O15      O        0.82430    0.35820    0.25340    1.000
    O16      O        0.76530    0.44360    0.13730    1.000
    O17      O        0.70530    0.50530    0.03050    1.000
    O18      O        0.23780    0.56320    0.89240    1.000
    O19      O        0.29010    0.48510    0.96600    1.000
    O20      O        0.02220    0.57600    0.90500    1.000
    O21      O        0.98440    0.42840    0.11310    1.000
    N5       N        0.90020    0.49550    0.01050    1.000
    N6       N        0.09260    0.49060    0.98860    1.000
    C25      C        0.76850    0.49770    0.06100    1.000
    C26      C        0.96900    0.51100    0.99100    1.000
    C27      C        0.01740    0.47230    0.03960    1.000
    C28      C        0.23600    0.52200    0.96700    1.000
    C29      C        0.16220    0.47920    0.03800    1.000
    H33      H        0.14540    0.41890    0.05920    1.000
    C30      C        0.20170    0.54750    0.12030    1.000
    H34      H        0.26070    0.55710    0.10840    1.000
    H35      H        0.17970    0.50440    0.17630    1.000
    C31      C        0.23300    0.62300    0.19300    1.000
    H36      H        0.26660    0.67470    0.14950    1.000
    H37      H        0.27670    0.61900    0.23640    1.000
    C32      C        0.13300    0.71700    0.21400    1.000
    H38      H        0.11780    0.69460    0.14390    1.000
    H39      H        0.17810    0.77820    0.21160    1.000
    H40      H        0.08170    0.71140    0.24840    1.000
    S5       S        0.86170    0.68000    0.20000    1.000
    C33      C        0.85860    0.54750    0.00200    1.000
    H41      H        0.83770    0.53440    0.93000    1.000
    C34      C        0.88200    0.63700    0.00700    1.000
    H42      H        0.87210    0.64660    0.93510    1.000
    H43      H        0.94610    0.66400    0.01190    1.000
    C35      C        0.87180    0.70810    0.05800    1.000
    H44      H        0.81910    0.70740    0.03270    1.000
    H45      H        0.92260    0.76580    0.04490    1.000
    C36      C        0.98100    0.76200    0.17500    1.000
    H46      H        0.01140    0.73160    0.15440    1.000
    H47      H        0.00740    0.79550    0.23740    1.000
    H48      H        0.98540    0.80160    0.12000    1.000
    S6       S        0.17320    0.65530    0.28420    1.000
    Cu7      Cu       0.41910    0.55480    0.63214    1.000
    Cu8      Cu       0.42060    0.55590    0.88840    1.000
    O22      O        0.35820    0.53390    0.75340    1.000
    O23      O        0.44360    0.67830    0.63730    1.000
    O24      O        0.50530    0.80000    0.53050    1.000
    O25      O        0.56320    0.32540    0.39240    1.000
    O26      O        0.48510    0.19500    0.46600    1.000
    O27      O        0.57600    0.55380    0.40500    1.000
    O28      O        0.42840    0.44400    0.61310    1.000
    N7       N        0.49550    0.59530    0.51050    1.000
    N8       N        0.49060    0.39800    0.48860    1.000
    C37      C        0.49770    0.72920    0.56100    1.000
    C38      C        0.51100    0.54200    0.49100    1.000
    C39      C        0.47230    0.45490    0.53960    1.000
    C40      C        0.52200    0.28600    0.46700    1.000
    C41      C        0.47920    0.31700    0.53800    1.000
    H49      H        0.41890    0.27350    0.55920    1.000
    C42      C        0.54750    0.34580    0.62030    1.000
    H50      H        0.55710    0.29640    0.60840    1.000
    H51      H        0.50440    0.32470    0.67630    1.000
    C43      C        0.62300    0.39000    0.69300    1.000
    H52      H        0.67470    0.40810    0.64950    1.000
    H53      H        0.61900    0.34230    0.73640    1.000
    C44      C        0.71700    0.58400    0.71400    1.000
    H54      H        0.69460    0.57680    0.64390    1.000
    H55      H        0.77820    0.60010    0.71160    1.000
    H56      H        0.71140    0.62970    0.74840    1.000
    S7       S        0.68000    0.81830    0.70000    1.000
    C45      C        0.54750    0.68890    0.50200    1.000
    H57      H        0.53440    0.69670    0.43000    1.000
    C46      C        0.63700    0.75500    0.50700    1.000
    H58      H        0.64660    0.77450    0.43510    1.000
    H59      H        0.66400    0.71790    0.51190    1.000
    C47      C        0.70810    0.83630    0.55800    1.000
    H60      H        0.70740    0.88830    0.53270    1.000
    H61      H        0.76580    0.84320    0.54490    1.000
    C48      C        0.76200    0.78100    0.67500    1.000
    H62      H        0.73160    0.72020    0.65440    1.000
    H63      H        0.79550    0.78810    0.73740    1.000
    H64      H        0.80160    0.81620    0.62000    1.000
    S8       S        0.65530    0.48210    0.78420    1.000
    Cu9      Cu       0.44520    0.86430    0.63214    1.000
    Cu10     Cu       0.44410    0.86470    0.88840    1.000
    O29      O        0.46610    0.82430    0.75340    1.000
    O30      O        0.32170    0.76530    0.63730    1.000
    O31      O        0.20000    0.70530    0.53050    1.000
    O32      O        0.67460    0.23780    0.39240    1.000
    O33      O        0.80500    0.29010    0.46600    1.000
    O34      O        0.44620    0.02220    0.40500    1.000
    O35      O        0.55600    0.98440    0.61310    1.000
    N9       N        0.40470    0.90020    0.51050    1.000
    N10      N        0.60200    0.09260    0.48860    1.000
    C49      C        0.27080    0.76850    0.56100    1.000
    C50      C        0.45800    0.96900    0.49100    1.000
    C51      C        0.54510    0.01740    0.53960    1.000
    C52      C        0.71400    0.23600    0.46700    1.000
    C53      C        0.68300    0.16220    0.53800    1.000
    H65      H        0.72650    0.14540    0.55920    1.000
    C54      C        0.65420    0.20170    0.62030    1.000
    H66      H        0.70360    0.26070    0.60840    1.000
    H67      H        0.67530    0.17970    0.67630    1.000
    C55      C        0.61000    0.23300    0.69300    1.000
    H68      H        0.59190    0.26660    0.64950    1.000
    H69      H        0.65770    0.27670    0.73640    1.000
    C56      C        0.41600    0.13300    0.71400    1.000
    H70      H        0.42320    0.11780    0.64390    1.000
    H71      H        0.39990    0.17810    0.71160    1.000
    H72      H        0.37030    0.08170    0.74840    1.000
    S9       S        0.18170    0.86170    0.70000    1.000
    C57      C        0.31110    0.85860    0.50200    1.000
    H73      H        0.30330    0.83770    0.43000    1.000
    C58      C        0.24500    0.88200    0.50700    1.000
    H74      H        0.22550    0.87210    0.43510    1.000
    H75      H        0.28210    0.94610    0.51190    1.000
    C59      C        0.16370    0.87180    0.55800    1.000
    H76      H        0.11170    0.81910    0.53270    1.000
    H77      H        0.15680    0.92260    0.54490    1.000
    C60      C        0.21900    0.98100    0.67500    1.000
    H78      H        0.27980    0.01140    0.65440    1.000
    H79      H        0.21190    0.00740    0.73740    1.000
    H80      H        0.18380    0.98540    0.62000    1.000
    S10      S        0.51790    0.17320    0.78420    1.000
    Cu11     Cu       0.13570    0.58090    0.63214    1.000
    Cu12     Cu       0.13530    0.57940    0.88840    1.000
    O36      O        0.17570    0.64180    0.75340    1.000
    O37      O        0.23470    0.55640    0.63730    1.000
    O38      O        0.29470    0.49470    0.53050    1.000
    O39      O        0.76220    0.43680    0.39240    1.000
    O40      O        0.70990    0.51490    0.46600    1.000
    O41      O        0.97780    0.42400    0.40500    1.000
    O42      O        0.01560    0.57160    0.61310    1.000
    N11      N        0.09980    0.50450    0.51050    1.000
    N12      N        0.90740    0.50940    0.48860    1.000
    C61      C        0.23150    0.50230    0.56100    1.000
    C62      C        0.03100    0.48900    0.49100    1.000
    C63      C        0.98260    0.52770    0.53960    1.000
    C64      C        0.76400    0.47800    0.46700    1.000
    C65      C        0.83780    0.52080    0.53800    1.000
    H81      H        0.85460    0.58110    0.55920    1.000
    C66      C        0.79830    0.45250    0.62030    1.000
    H82      H        0.73930    0.44290    0.60840    1.000
    H83      H        0.82030    0.49560    0.67630    1.000
    C67      C        0.76700    0.37700    0.69300    1.000
    H84      H        0.73340    0.32530    0.64950    1.000
    H85      H        0.72330    0.38100    0.73640    1.000
    C68      C        0.86700    0.28300    0.71400    1.000
    H86      H        0.88220    0.30540    0.64390    1.000
    H87      H        0.82190    0.22180    0.71160    1.000
    H88      H        0.91830    0.28860    0.74840    1.000
    S11      S        0.13830    0.32000    0.70000    1.000
    C69      C        0.14140    0.45250    0.50200    1.000
    H89      H        0.16230    0.46560    0.43000    1.000
    C70      C        0.11800    0.36300    0.50700    1.000
    H90      H        0.12790    0.35340    0.43510    1.000
    H91      H        0.05390    0.33600    0.51190    1.000
    C71      C        0.12820    0.29190    0.55800    1.000
    H92      H        0.18090    0.29260    0.53270    1.000
    H93      H        0.07740    0.23420    0.54490    1.000
    C72      C        0.01900    0.23800    0.67500    1.000
    H94      H        0.98860    0.26840    0.65440    1.000
    H95      H        0.99260    0.20450    0.73740    1.000
    H96      H        0.01460    0.19840    0.62000    1.000
    S12      S        0.82680    0.34470    0.78420    1.000
    Ca1      Ca       0.66667    0.33333    0.25410    1.000
    Ca2      Ca       0.33333    0.66667    0.75410    1.000
