# CIF file generated by openbabel 3.1.0, see https://openbabel.org
data_I
_chemical_name_common 'image0'
_cell_length_a 10.6592
_cell_length_b 15.6897
_cell_length_c 11.4088
_cell_angle_alpha 90
_cell_angle_beta 90.101
_cell_angle_gamma 90
_space_group_name_H-M_alt 'P 1'
_space_group_name_Hall 'P 1'
loop_
    _symmetry_equiv_pos_as_xyz
    x,y,z
loop_
    _atom_site_label
    _atom_site_type_symbol
    _atom_site_fract_x
    _atom_site_fract_y
    _atom_site_fract_z
    _atom_site_occupancy
    O1       O        0.90603    0.93884    0.37420    1.000
    O2       O        0.83391    0.85978    0.22825    1.000
    O3       O        0.87375    0.93611    0.65426    1.000
    O4       O        0.03645    0.85952    0.59206    1.000
    C1       C        0.80050    0.81024    0.42218    1.000
    C2       C        0.83150    0.81333    0.54177    1.000
    C3       C        0.71970    0.74678    0.38299    1.000
    C4       C        0.85040    0.87331    0.33454    1.000
    C5       C        0.92270    0.87520    0.59659    1.000
    H1       H        0.69950    0.74490    0.30010    1.000
    O5       O        0.40603    0.43884    0.37420    1.000
    O6       O        0.33391    0.35978    0.22825    1.000
    O7       O        0.37375    0.43611    0.65426    1.000
    O8       O        0.53645    0.35952    0.59206    1.000
    C6       C        0.30050    0.31024    0.42218    1.000
    C7       C        0.33150    0.31333    0.54177    1.000
    C8       C        0.21970    0.24678    0.38299    1.000
    C9       C        0.35040    0.37331    0.33454    1.000
    C10      C        0.42270    0.37520    0.59659    1.000
    H2       H        0.19950    0.24490    0.30010    1.000
    O9       O        0.09397    0.93884    0.12580    1.000
    O10      O        0.16609    0.85978    0.27175    1.000
    O11      O        0.12625    0.93611    0.84574    1.000
    O12      O        0.96355    0.85952    0.90794    1.000
    C11      C        0.19950    0.81024    0.07782    1.000
    C12      C        0.16850    0.81333    0.95823    1.000
    C13      C        0.28030    0.74678    0.11701    1.000
    C14      C        0.14960    0.87331    0.16546    1.000
    C15      C        0.07730    0.87520    0.90341    1.000
    H3       H        0.30050    0.74490    0.19990    1.000
    O13      O        0.59397    0.43884    0.12580    1.000
    O14      O        0.66609    0.35978    0.27175    1.000
    O15      O        0.62625    0.43611    0.84574    1.000
    O16      O        0.46355    0.35952    0.90794    1.000
    C16      C        0.69950    0.31024    0.07782    1.000
    C17      C        0.66850    0.31333    0.95823    1.000
    C18      C        0.78030    0.24678    0.11701    1.000
    C19      C        0.64960    0.37331    0.16546    1.000
    C20      C        0.57730    0.37520    0.90341    1.000
    H4       H        0.80050    0.24490    0.19990    1.000
    O17      O        0.09397    0.06116    0.62580    1.000
    O18      O        0.16609    0.14022    0.77175    1.000
    O19      O        0.12625    0.06389    0.34574    1.000
    O20      O        0.96355    0.14048    0.40794    1.000
    C21      C        0.19950    0.18976    0.57782    1.000
    C22      C        0.16850    0.18667    0.45823    1.000
    C23      C        0.28030    0.25322    0.61701    1.000
    C24      C        0.14960    0.12669    0.66546    1.000
    C25      C        0.07730    0.12480    0.40341    1.000
    H5       H        0.30050    0.25510    0.69990    1.000
    O21      O        0.59397    0.56116    0.62580    1.000
    O22      O        0.66609    0.64022    0.77175    1.000
    O23      O        0.62625    0.56389    0.34574    1.000
    O24      O        0.46355    0.64048    0.40794    1.000
    C26      C        0.69950    0.68976    0.57782    1.000
    C27      C        0.66850    0.68667    0.45823    1.000
    C28      C        0.78030    0.75322    0.61701    1.000
    C29      C        0.64960    0.62669    0.66546    1.000
    C30      C        0.57730    0.62480    0.40341    1.000
    H6       H        0.80050    0.75510    0.69990    1.000
    O25      O        0.90603    0.06116    0.87420    1.000
    O26      O        0.83391    0.14022    0.72825    1.000
    O27      O        0.87375    0.06389    0.15426    1.000
    O28      O        0.03645    0.14048    0.09206    1.000
    C31      C        0.80050    0.18976    0.92218    1.000
    C32      C        0.83150    0.18667    0.04177    1.000
    C33      C        0.71970    0.25322    0.88299    1.000
    C34      C        0.85040    0.12669    0.83454    1.000
    C35      C        0.92270    0.12480    0.09659    1.000
    H7       H        0.69950    0.25510    0.80010    1.000
    O29      O        0.40603    0.56116    0.87420    1.000
    O30      O        0.33391    0.64022    0.72825    1.000
    O31      O        0.37375    0.56389    0.15426    1.000
    O32      O        0.53645    0.64048    0.09206    1.000
    C36      C        0.30050    0.68976    0.92218    1.000
    C37      C        0.33150    0.68667    0.04177    1.000
    C38      C        0.21970    0.75322    0.88299    1.000
    C39      C        0.35040    0.62669    0.83454    1.000
    C40      C        0.42270    0.62480    0.09659    1.000
    H8       H        0.19950    0.75510    0.80010    1.000
    Co1      Co       0.00000    0.00288    0.25000    1.000
    Co2      Co       0.50000    0.50288    0.25000    1.000
    Co3      Co       0.00000    0.99712    0.75000    1.000
    Co4      Co       0.50000    0.49712    0.75000    1.000
