# CIF file generated by openbabel 3.1.0, see https://openbabel.org
data_I
_chemical_name_common 'KUXLUL_clean'
_cell_length_a 10.8908
_cell_length_b 11.5537
_cell_length_c 16.7793
_cell_angle_alpha 90
_cell_angle_beta 90
_cell_angle_gamma 90
_space_group_name_H-M_alt 'P 1'
_space_group_name_Hall 'P 1'
loop_
    _symmetry_equiv_pos_as_xyz
    x,y,z
loop_
    _atom_site_label
    _atom_site_type_symbol
    _atom_site_fract_x
    _atom_site_fract_y
    _atom_site_fract_z
    _atom_site_occupancy
    Cu1      Cu       0.00000    0.82138    0.86466    1.000
    Cu2      Cu       0.00000    0.17862    0.13534    1.000
    Cu3      Cu       0.13798    0.00000    0.00000    1.000
    Cu4      Cu       0.86202    0.00000    0.00000    1.000
    H1       H        0.31390    0.29340    0.23160    1.000
    H2       H        0.31390    0.70660    0.76840    1.000
    H3       H        0.68610    0.70660    0.76840    1.000
    H4       H        0.68610    0.29340    0.23160    1.000
    H5       H        0.00000    0.84000    0.99700    1.000
    H6       H        0.00000    0.16000    0.00300    1.000
    H7       H        0.50000    0.10940    0.06540    1.000
    H8       H        0.50000    0.89060    0.93460    1.000
    C1       C        0.26830    0.15670    0.10750    1.000
    C2       C        0.26830    0.84330    0.89250    1.000
    C3       C        0.38870    0.19470    0.14320    1.000
    C4       C        0.38930    0.26770    0.20930    1.000
    C5       C        0.38870    0.80530    0.85680    1.000
    C6       C        0.38930    0.73230    0.79070    1.000
    C7       C        0.73170    0.84330    0.89250    1.000
    C8       C        0.73170    0.15670    0.10750    1.000
    C9       C        0.61130    0.80530    0.85680    1.000
    C10      C        0.61070    0.73230    0.79070    1.000
    C11      C        0.61130    0.19470    0.14320    1.000
    C12      C        0.61070    0.26770    0.20930    1.000
    C13      C        0.50000    0.15890    0.11050    1.000
    C14      C        0.50000    0.30300    0.24270    1.000
    C15      C        0.50000    0.84110    0.88950    1.000
    C16      C        0.50000    0.69700    0.75730    1.000
    S1       S        0.50000    0.39953    0.32572    1.000
    S2       S        0.50000    0.60047    0.67428    1.000
    O1       O        0.27050    0.08590    0.05170    1.000
    O2       O        0.17510    0.79700    0.86170    1.000
    O3       O        0.27050    0.91410    0.94830    1.000
    O4       O        0.17510    0.20300    0.13830    1.000
    O5       O        0.38930    0.37840    0.37020    1.000
    O6       O        0.38930    0.62160    0.62980    1.000
    O7       O        0.72950    0.91410    0.94830    1.000
    O8       O        0.82490    0.20300    0.13830    1.000
    O9       O        0.72950    0.08590    0.05170    1.000
    O10      O        0.82490    0.79700    0.86170    1.000
    O11      O        0.61070    0.62160    0.62980    1.000
    O12      O        0.61070    0.37840    0.37020    1.000
    O13      O        0.00000    0.89840    0.96710    1.000
    O14      O        0.00000    0.10160    0.03290    1.000
    O15      O        0.50000    0.51370    0.28960    1.000
    O16      O        0.50000    0.48630    0.71040    1.000
    Cu5      Cu       0.50000    0.67862    0.36466    1.000
    Cu6      Cu       0.50000    0.32138    0.63534    1.000
    Cu7      Cu       0.36202    0.50000    0.50000    1.000
    Cu8      Cu       0.63798    0.50000    0.50000    1.000
    H9       H        0.18610    0.20660    0.73160    1.000
    H10      H        0.18610    0.79340    0.26840    1.000
    H11      H        0.81390    0.79340    0.26840    1.000
    H12      H        0.81390    0.20660    0.73160    1.000
    H13      H        0.00000    0.39060    0.56540    1.000
    H14      H        0.00000    0.60940    0.43460    1.000
    H15      H        0.50000    0.66000    0.49700    1.000
    H16      H        0.50000    0.34000    0.50300    1.000
    C17      C        0.11130    0.30530    0.64320    1.000
    C18      C        0.11070    0.23230    0.70930    1.000
    C19      C        0.11130    0.69470    0.35680    1.000
    C20      C        0.11070    0.76770    0.29070    1.000
    C21      C        0.23170    0.34330    0.60750    1.000
    C22      C        0.23170    0.65670    0.39250    1.000
    C23      C        0.88870    0.69470    0.35680    1.000
    C24      C        0.88930    0.76770    0.29070    1.000
    C25      C        0.88870    0.30530    0.64320    1.000
    C26      C        0.88930    0.23230    0.70930    1.000
    C27      C        0.76830    0.65670    0.39250    1.000
    C28      C        0.76830    0.34330    0.60750    1.000
    C29      C        0.00000    0.34110    0.61050    1.000
    C30      C        0.00000    0.19700    0.74270    1.000
    C31      C        0.00000    0.65890    0.38950    1.000
    C32      C        0.00000    0.80300    0.25730    1.000
    S3       S        0.00000    0.10047    0.82572    1.000
    S4       S        0.00000    0.89953    0.17428    1.000
    O17      O        0.11070    0.12160    0.87020    1.000
    O18      O        0.11070    0.87840    0.12980    1.000
    O19      O        0.22950    0.41410    0.55170    1.000
    O20      O        0.32490    0.70300    0.36170    1.000
    O21      O        0.22950    0.58590    0.44830    1.000
    O22      O        0.32490    0.29700    0.63830    1.000
    O23      O        0.88930    0.87840    0.12980    1.000
    O24      O        0.88930    0.12160    0.87020    1.000
    O25      O        0.77050    0.58590    0.44830    1.000
    O26      O        0.67510    0.29700    0.63830    1.000
    O27      O        0.77050    0.41410    0.55170    1.000
    O28      O        0.67510    0.70300    0.36170    1.000
    O29      O        0.00000    0.98630    0.78960    1.000
    O30      O        0.00000    0.01370    0.21040    1.000
    O31      O        0.50000    0.60160    0.46710    1.000
    O32      O        0.50000    0.39840    0.53290    1.000
