# CIF file generated by openbabel 3.1.0, see https://openbabel.org
data_I
_chemical_name_common 'image0'
_cell_length_a 49.365
_cell_length_b 49.365
_cell_length_c 49.365
_cell_angle_alpha 90
_cell_angle_beta 90
_cell_angle_gamma 90
_space_group_name_H-M_alt 'P 1'
_space_group_name_Hall 'P 1'
loop_
    _symmetry_equiv_pos_as_xyz
    x,y,z
loop_
    _atom_site_label
    _atom_site_type_symbol
    _atom_site_fract_x
    _atom_site_fract_y
    _atom_site_fract_z
    _atom_site_occupancy
    O1       O        0.25187    0.42023    0.97577    1.000
    O2       O        0.21111    0.44804    0.94731    1.000
    O3       O        0.17675    0.52756    0.02887    1.000
    O4       O        0.98020    0.92970    0.04000    1.000
    C1       C        0.26600    0.36520    0.02590    1.000
    H1       H        0.26560    0.37460    0.04230    1.000
    C2       C        0.27070    0.33770    0.02500    1.000
    H2       H        0.27220    0.32770    0.04090    1.000
    C3       C        0.29520    0.23080    0.02190    1.000
    C4       C        0.18690    0.54600    0.04620    1.000
    C5       C        0.16540    0.55950    0.06220    1.000
    C6       C        0.17235    0.57820    0.08210    1.000
    H3       H        0.19040    0.58080    0.08670    1.000
    C7       C        0.15230    0.59290    0.09530    1.000
    H4       H        0.15690    0.60530    0.10860    1.000
    C8       C        0.12520    0.58890    0.08850    1.000
    C9       C        0.11826    0.57020    0.06860    1.000
    H5       H        0.10020    0.56760    0.06410    1.000
    C10      C        0.13840    0.55550    0.05550    1.000
    H6       H        0.13370    0.54310    0.04210    1.000
    C11      C        0.10430    0.60520    0.10160    1.000
    C12      C        0.08760    0.61900    0.11180    1.000
    C13      C        0.06660    0.63700    0.12280    1.000
    C14      C        0.05680    0.63170    0.14860    1.000
    C15      C        0.03640    0.64780    0.15960    1.000
    C16      C        0.02595    0.66930    0.14460    1.000
    C17      C        0.03580    0.67460    0.11880    1.000
    C18      C        0.05610    0.65840    0.10790    1.000
    C19      C        0.02130    0.73320    0.14270    1.000
    C20      C        0.02130    0.75960    0.13510    1.000
    C21      C        0.97640    0.86210    0.08630    1.000
    H7       H        0.96110    0.85610    0.09540    1.000
    C22      C        0.97680    0.88660    0.07260    1.000
    H8       H        0.96020    0.89480    0.06880    1.000
    C23      C        0.02280    0.69750    0.20400    1.000
    F1       F        0.02770    0.64340    0.18260    1.000
    F2       F        0.06580    0.61170    0.16330    1.000
    F3       F        0.06750    0.66100    0.08410    1.000
    F4       F        0.02580    0.69100    0.10400    1.000
    F5       F        0.04590    0.72030    0.14280    1.000
    F6       F        0.04510    0.77370    0.13100    1.000
    F7       F        0.04610    0.69230    0.19150    1.000
    F8       F        0.29370    0.24540    0.04530    1.000
    O5       O        0.74813    0.57977    0.97577    1.000
    O6       O        0.78889    0.55196    0.94731    1.000
    O7       O        0.82325    0.47244    0.02887    1.000
    O8       O        0.01980    0.07030    0.04000    1.000
    C24      C        0.73400    0.63480    0.02590    1.000
    H9       H        0.73440    0.62540    0.04230    1.000
    C25      C        0.72930    0.66230    0.02500    1.000
    H10      H        0.72780    0.67230    0.04090    1.000
    C26      C        0.70480    0.76920    0.02190    1.000
    C27      C        0.81310    0.45400    0.04620    1.000
    C28      C        0.83460    0.44050    0.06220    1.000
    C29      C        0.82765    0.42180    0.08210    1.000
    H11      H        0.80960    0.41920    0.08670    1.000
    C30      C        0.84770    0.40710    0.09530    1.000
    H12      H        0.84310    0.39470    0.10860    1.000
    C31      C        0.87480    0.41110    0.08850    1.000
    C32      C        0.88174    0.42980    0.06860    1.000
    H13      H        0.89980    0.43240    0.06410    1.000
    C33      C        0.86160    0.44450    0.05550    1.000
    H14      H        0.86630    0.45690    0.04210    1.000
    C34      C        0.89570    0.39480    0.10160    1.000
    C35      C        0.91240    0.38100    0.11180    1.000
    C36      C        0.93340    0.36300    0.12280    1.000
    C37      C        0.94320    0.36830    0.14860    1.000
    C38      C        0.96360    0.35220    0.15960    1.000
    C39      C        0.97405    0.33070    0.14460    1.000
    C40      C        0.96420    0.32540    0.11880    1.000
    C41      C        0.94390    0.34160    0.10790    1.000
    C42      C        0.97870    0.26680    0.14270    1.000
    C43      C        0.97870    0.24040    0.13510    1.000
    C44      C        0.02360    0.13790    0.08630    1.000
    H15      H        0.03890    0.14390    0.09540    1.000
    C45      C        0.02320    0.11340    0.07260    1.000
    H16      H        0.03980    0.10520    0.06880    1.000
    C46      C        0.97720    0.30250    0.20400    1.000
    F9       F        0.97230    0.35660    0.18260    1.000
    F10      F        0.93420    0.38830    0.16330    1.000
    F11      F        0.93250    0.33900    0.08410    1.000
    F12      F        0.97420    0.30900    0.10400    1.000
    F13      F        0.95410    0.27970    0.14280    1.000
    F14      F        0.95490    0.22630    0.13100    1.000
    F15      F        0.95390    0.30770    0.19150    1.000
    F16      F        0.70630    0.75460    0.04530    1.000
    O9       O        0.74813    0.42023    0.02423    1.000
    O10      O        0.78889    0.44804    0.05269    1.000
    O11      O        0.82325    0.52756    0.97113    1.000
    O12      O        0.01980    0.92970    0.96000    1.000
    C47      C        0.73400    0.36520    0.97410    1.000
    H17      H        0.73440    0.37460    0.95770    1.000
    C48      C        0.72930    0.33770    0.97500    1.000
    H18      H        0.72780    0.32770    0.95910    1.000
    C49      C        0.70480    0.23080    0.97810    1.000
    C50      C        0.81310    0.54600    0.95380    1.000
    C51      C        0.83460    0.55950    0.93780    1.000
    C52      C        0.82765    0.57820    0.91790    1.000
    H19      H        0.80960    0.58080    0.91330    1.000
    C53      C        0.84770    0.59290    0.90470    1.000
    H20      H        0.84310    0.60530    0.89140    1.000
    C54      C        0.87480    0.58890    0.91150    1.000
    C55      C        0.88174    0.57020    0.93140    1.000
    H21      H        0.89980    0.56760    0.93590    1.000
    C56      C        0.86160    0.55550    0.94450    1.000
    H22      H        0.86630    0.54310    0.95790    1.000
    C57      C        0.89570    0.60520    0.89840    1.000
    C58      C        0.91240    0.61900    0.88820    1.000
    C59      C        0.93340    0.63700    0.87720    1.000
    C60      C        0.94320    0.63170    0.85140    1.000
    C61      C        0.96360    0.64780    0.84040    1.000
    C62      C        0.97405    0.66930    0.85540    1.000
    C63      C        0.96420    0.67460    0.88120    1.000
    C64      C        0.94390    0.65840    0.89210    1.000
    C65      C        0.97870    0.73320    0.85730    1.000
    C66      C        0.97870    0.75960    0.86490    1.000
    C67      C        0.02360    0.86210    0.91370    1.000
    H23      H        0.03890    0.85610    0.90460    1.000
    C68      C        0.02320    0.88660    0.92740    1.000
    H24      H        0.03980    0.89480    0.93120    1.000
    C69      C        0.97720    0.69750    0.79600    1.000
    F17      F        0.97230    0.64340    0.81740    1.000
    F18      F        0.93420    0.61170    0.83670    1.000
    F19      F        0.93250    0.66100    0.91590    1.000
    F20      F        0.97420    0.69100    0.89600    1.000
    F21      F        0.95410    0.72030    0.85720    1.000
    F22      F        0.95490    0.77370    0.86900    1.000
    F23      F        0.95390    0.69230    0.80850    1.000
    F24      F        0.70630    0.24540    0.95470    1.000
    O13      O        0.25187    0.57977    0.02423    1.000
    O14      O        0.21111    0.55196    0.05269    1.000
    O15      O        0.17675    0.47244    0.97113    1.000
    O16      O        0.98020    0.07030    0.96000    1.000
    C70      C        0.26600    0.63480    0.97410    1.000
    H25      H        0.26560    0.62540    0.95770    1.000
    C71      C        0.27070    0.66230    0.97500    1.000
    H26      H        0.27220    0.67230    0.95910    1.000
    C72      C        0.29520    0.76920    0.97810    1.000
    C73      C        0.18690    0.45400    0.95380    1.000
    C74      C        0.16540    0.44050    0.93780    1.000
    C75      C        0.17235    0.42180    0.91790    1.000
    H27      H        0.19040    0.41920    0.91330    1.000
    C76      C        0.15230    0.40710    0.90470    1.000
    H28      H        0.15690    0.39470    0.89140    1.000
    C77      C        0.12520    0.41110    0.91150    1.000
    C78      C        0.11826    0.42980    0.93140    1.000
    H29      H        0.10020    0.43240    0.93590    1.000
    C79      C        0.13840    0.44450    0.94450    1.000
    H30      H        0.13370    0.45690    0.95790    1.000
    C80      C        0.10430    0.39480    0.89840    1.000
    C81      C        0.08760    0.38100    0.88820    1.000
    C82      C        0.06660    0.36300    0.87720    1.000
    C83      C        0.05680    0.36830    0.85140    1.000
    C84      C        0.03640    0.35220    0.84040    1.000
    C85      C        0.02595    0.33070    0.85540    1.000
    C86      C        0.03580    0.32540    0.88120    1.000
    C87      C        0.05610    0.34160    0.89210    1.000
    C88      C        0.02130    0.26680    0.85730    1.000
    C89      C        0.02130    0.24040    0.86490    1.000
    C90      C        0.97640    0.13790    0.91370    1.000
    H31      H        0.96110    0.14390    0.90460    1.000
    C91      C        0.97680    0.11340    0.92740    1.000
    H32      H        0.96020    0.10520    0.93120    1.000
    C92      C        0.02280    0.30250    0.79600    1.000
    F25      F        0.02770    0.35660    0.81740    1.000
    F26      F        0.06580    0.38830    0.83670    1.000
    F27      F        0.06750    0.33900    0.91590    1.000
    F28      F        0.02580    0.30900    0.89600    1.000
    F29      F        0.04590    0.27970    0.85720    1.000
    F30      F        0.04510    0.22630    0.86900    1.000
    F31      F        0.04610    0.30770    0.80850    1.000
    F32      F        0.29370    0.75460    0.95470    1.000
    O17      O        0.97577    0.25187    0.42023    1.000
    O18      O        0.94731    0.21111    0.44804    1.000
    O19      O        0.02887    0.17675    0.52756    1.000
    O20      O        0.04000    0.98020    0.92970    1.000
    C93      C        0.02590    0.26600    0.36520    1.000
    H33      H        0.04230    0.26560    0.37460    1.000
    C94      C        0.02500    0.27070    0.33770    1.000
    H34      H        0.04090    0.27220    0.32770    1.000
    C95      C        0.02190    0.29520    0.23080    1.000
    C96      C        0.04620    0.18690    0.54600    1.000
    C97      C        0.06220    0.16540    0.55950    1.000
    C98      C        0.08210    0.17235    0.57820    1.000
    H35      H        0.08670    0.19040    0.58080    1.000
    C99      C        0.09530    0.15230    0.59290    1.000
    H36      H        0.10860    0.15690    0.60530    1.000
    C100     C        0.08850    0.12520    0.58890    1.000
    C101     C        0.06860    0.11826    0.57020    1.000
    H37      H        0.06410    0.10020    0.56760    1.000
    C102     C        0.05550    0.13840    0.55550    1.000
    H38      H        0.04210    0.13370    0.54310    1.000
    C103     C        0.10160    0.10430    0.60520    1.000
    C104     C        0.11180    0.08760    0.61900    1.000
    C105     C        0.12280    0.06660    0.63700    1.000
    C106     C        0.14860    0.05680    0.63170    1.000
    C107     C        0.15960    0.03640    0.64780    1.000
    C108     C        0.14460    0.02595    0.66930    1.000
    C109     C        0.11880    0.03580    0.67460    1.000
    C110     C        0.10790    0.05610    0.65840    1.000
    C111     C        0.14270    0.02130    0.73320    1.000
    C112     C        0.13510    0.02130    0.75960    1.000
    C113     C        0.08630    0.97640    0.86210    1.000
    H39      H        0.09540    0.96110    0.85610    1.000
    C114     C        0.07260    0.97680    0.88660    1.000
    H40      H        0.06880    0.96020    0.89480    1.000
    C115     C        0.20400    0.02280    0.69750    1.000
    F33      F        0.18260    0.02770    0.64340    1.000
    F34      F        0.16330    0.06580    0.61170    1.000
    F35      F        0.08410    0.06750    0.66100    1.000
    F36      F        0.10400    0.02580    0.69100    1.000
    F37      F        0.14280    0.04590    0.72030    1.000
    F38      F        0.13100    0.04510    0.77370    1.000
    F39      F        0.19150    0.04610    0.69230    1.000
    F40      F        0.04530    0.29370    0.24540    1.000
    O21      O        0.97577    0.74813    0.57977    1.000
    O22      O        0.94731    0.78889    0.55196    1.000
    O23      O        0.02887    0.82325    0.47244    1.000
    O24      O        0.04000    0.01980    0.07030    1.000
    C116     C        0.02590    0.73400    0.63480    1.000
    H41      H        0.04230    0.73440    0.62540    1.000
    C117     C        0.02500    0.72930    0.66230    1.000
    H42      H        0.04090    0.72780    0.67230    1.000
    C118     C        0.02190    0.70480    0.76920    1.000
    C119     C        0.04620    0.81310    0.45400    1.000
    C120     C        0.06220    0.83460    0.44050    1.000
    C121     C        0.08210    0.82765    0.42180    1.000
    H43      H        0.08670    0.80960    0.41920    1.000
    C122     C        0.09530    0.84770    0.40710    1.000
    H44      H        0.10860    0.84310    0.39470    1.000
    C123     C        0.08850    0.87480    0.41110    1.000
    C124     C        0.06860    0.88174    0.42980    1.000
    H45      H        0.06410    0.89980    0.43240    1.000
    C125     C        0.05550    0.86160    0.44450    1.000
    H46      H        0.04210    0.86630    0.45690    1.000
    C126     C        0.10160    0.89570    0.39480    1.000
    C127     C        0.11180    0.91240    0.38100    1.000
    C128     C        0.12280    0.93340    0.36300    1.000
    C129     C        0.14860    0.94320    0.36830    1.000
    C130     C        0.15960    0.96360    0.35220    1.000
    C131     C        0.14460    0.97405    0.33070    1.000
    C132     C        0.11880    0.96420    0.32540    1.000
    C133     C        0.10790    0.94390    0.34160    1.000
    C134     C        0.14270    0.97870    0.26680    1.000
    C135     C        0.13510    0.97870    0.24040    1.000
    C136     C        0.08630    0.02360    0.13790    1.000
    H47      H        0.09540    0.03890    0.14390    1.000
    C137     C        0.07260    0.02320    0.11340    1.000
    H48      H        0.06880    0.03980    0.10520    1.000
    C138     C        0.20400    0.97720    0.30250    1.000
    F41      F        0.18260    0.97230    0.35660    1.000
    F42      F        0.16330    0.93420    0.38830    1.000
    F43      F        0.08410    0.93250    0.33900    1.000
    F44      F        0.10400    0.97420    0.30900    1.000
    F45      F        0.14280    0.95410    0.27970    1.000
    F46      F        0.13100    0.95490    0.22630    1.000
    F47      F        0.19150    0.95390    0.30770    1.000
    F48      F        0.04530    0.70630    0.75460    1.000
    O25      O        0.02423    0.74813    0.42023    1.000
    O26      O        0.05269    0.78889    0.44804    1.000
    O27      O        0.97113    0.82325    0.52756    1.000
    O28      O        0.96000    0.01980    0.92970    1.000
    C139     C        0.97410    0.73400    0.36520    1.000
    H49      H        0.95770    0.73440    0.37460    1.000
    C140     C        0.97500    0.72930    0.33770    1.000
    H50      H        0.95910    0.72780    0.32770    1.000
    C141     C        0.97810    0.70480    0.23080    1.000
    C142     C        0.95380    0.81310    0.54600    1.000
    C143     C        0.93780    0.83460    0.55950    1.000
    C144     C        0.91790    0.82765    0.57820    1.000
    H51      H        0.91330    0.80960    0.58080    1.000
    C145     C        0.90470    0.84770    0.59290    1.000
    H52      H        0.89140    0.84310    0.60530    1.000
    C146     C        0.91150    0.87480    0.58890    1.000
    C147     C        0.93140    0.88174    0.57020    1.000
    H53      H        0.93590    0.89980    0.56760    1.000
    C148     C        0.94450    0.86160    0.55550    1.000
    H54      H        0.95790    0.86630    0.54310    1.000
    C149     C        0.89840    0.89570    0.60520    1.000
    C150     C        0.88820    0.91240    0.61900    1.000
    C151     C        0.87720    0.93340    0.63700    1.000
    C152     C        0.85140    0.94320    0.63170    1.000
    C153     C        0.84040    0.96360    0.64780    1.000
    C154     C        0.85540    0.97405    0.66930    1.000
    C155     C        0.88120    0.96420    0.67460    1.000
    C156     C        0.89210    0.94390    0.65840    1.000
    C157     C        0.85730    0.97870    0.73320    1.000
    C158     C        0.86490    0.97870    0.75960    1.000
    C159     C        0.91370    0.02360    0.86210    1.000
    H55      H        0.90460    0.03890    0.85610    1.000
    C160     C        0.92740    0.02320    0.88660    1.000
    H56      H        0.93120    0.03980    0.89480    1.000
    C161     C        0.79600    0.97720    0.69750    1.000
    F49      F        0.81740    0.97230    0.64340    1.000
    F50      F        0.83670    0.93420    0.61170    1.000
    F51      F        0.91590    0.93250    0.66100    1.000
    F52      F        0.89600    0.97420    0.69100    1.000
    F53      F        0.85720    0.95410    0.72030    1.000
    F54      F        0.86900    0.95490    0.77370    1.000
    F55      F        0.80850    0.95390    0.69230    1.000
    F56      F        0.95470    0.70630    0.24540    1.000
    O29      O        0.02423    0.25187    0.57977    1.000
    O30      O        0.05269    0.21111    0.55196    1.000
    O31      O        0.97113    0.17675    0.47244    1.000
    O32      O        0.96000    0.98020    0.07030    1.000
    C162     C        0.97410    0.26600    0.63480    1.000
    H57      H        0.95770    0.26560    0.62540    1.000
    C163     C        0.97500    0.27070    0.66230    1.000
    H58      H        0.95910    0.27220    0.67230    1.000
    C164     C        0.97810    0.29520    0.76920    1.000
    C165     C        0.95380    0.18690    0.45400    1.000
    C166     C        0.93780    0.16540    0.44050    1.000
    C167     C        0.91790    0.17235    0.42180    1.000
    H59      H        0.91330    0.19040    0.41920    1.000
    C168     C        0.90470    0.15230    0.40710    1.000
    H60      H        0.89140    0.15690    0.39470    1.000
    C169     C        0.91150    0.12520    0.41110    1.000
    C170     C        0.93140    0.11826    0.42980    1.000
    H61      H        0.93590    0.10020    0.43240    1.000
    C171     C        0.94450    0.13840    0.44450    1.000
    H62      H        0.95790    0.13370    0.45690    1.000
    C172     C        0.89840    0.10430    0.39480    1.000
    C173     C        0.88820    0.08760    0.38100    1.000
    C174     C        0.87720    0.06660    0.36300    1.000
    C175     C        0.85140    0.05680    0.36830    1.000
    C176     C        0.84040    0.03640    0.35220    1.000
    C177     C        0.85540    0.02595    0.33070    1.000
    C178     C        0.88120    0.03580    0.32540    1.000
    C179     C        0.89210    0.05610    0.34160    1.000
    C180     C        0.85730    0.02130    0.26680    1.000
    C181     C        0.86490    0.02130    0.24040    1.000
    C182     C        0.91370    0.97640    0.13790    1.000
    H63      H        0.90460    0.96110    0.14390    1.000
    C183     C        0.92740    0.97680    0.11340    1.000
    H64      H        0.93120    0.96020    0.10520    1.000
    C184     C        0.79600    0.02280    0.30250    1.000
    F57      F        0.81740    0.02770    0.35660    1.000
    F58      F        0.83670    0.06580    0.38830    1.000
    F59      F        0.91590    0.06750    0.33900    1.000
    F60      F        0.89600    0.02580    0.30900    1.000
    F61      F        0.85720    0.04590    0.27970    1.000
    F62      F        0.86900    0.04510    0.22630    1.000
    F63      F        0.80850    0.04610    0.30770    1.000
    F64      F        0.95470    0.29370    0.75460    1.000
    O33      O        0.42023    0.97577    0.25187    1.000
    O34      O        0.44804    0.94731    0.21111    1.000
    O35      O        0.52756    0.02887    0.17675    1.000
    O36      O        0.92970    0.04000    0.98020    1.000
    C185     C        0.36520    0.02590    0.26600    1.000
    H65      H        0.37460    0.04230    0.26560    1.000
    C186     C        0.33770    0.02500    0.27070    1.000
    H66      H        0.32770    0.04090    0.27220    1.000
    C187     C        0.23080    0.02190    0.29520    1.000
    C188     C        0.54600    0.04620    0.18690    1.000
    C189     C        0.55950    0.06220    0.16540    1.000
    C190     C        0.57820    0.08210    0.17235    1.000
    H67      H        0.58080    0.08670    0.19040    1.000
    C191     C        0.59290    0.09530    0.15230    1.000
    H68      H        0.60530    0.10860    0.15690    1.000
    C192     C        0.58890    0.08850    0.12520    1.000
    C193     C        0.57020    0.06860    0.11826    1.000
    H69      H        0.56760    0.06410    0.10020    1.000
    C194     C        0.55550    0.05550    0.13840    1.000
    H70      H        0.54310    0.04210    0.13370    1.000
    C195     C        0.60520    0.10160    0.10430    1.000
    C196     C        0.61900    0.11180    0.08760    1.000
    C197     C        0.63700    0.12280    0.06660    1.000
    C198     C        0.63170    0.14860    0.05680    1.000
    C199     C        0.64780    0.15960    0.03640    1.000
    C200     C        0.66930    0.14460    0.02595    1.000
    C201     C        0.67460    0.11880    0.03580    1.000
    C202     C        0.65840    0.10790    0.05610    1.000
    C203     C        0.73320    0.14270    0.02130    1.000
    C204     C        0.75960    0.13510    0.02130    1.000
    C205     C        0.86210    0.08630    0.97640    1.000
    H71      H        0.85610    0.09540    0.96110    1.000
    C206     C        0.88660    0.07260    0.97680    1.000
    H72      H        0.89480    0.06880    0.96020    1.000
    C207     C        0.69750    0.20400    0.02280    1.000
    F65      F        0.64340    0.18260    0.02770    1.000
    F66      F        0.61170    0.16330    0.06580    1.000
    F67      F        0.66100    0.08410    0.06750    1.000
    F68      F        0.69100    0.10400    0.02580    1.000
    F69      F        0.72030    0.14280    0.04590    1.000
    F70      F        0.77370    0.13100    0.04510    1.000
    F71      F        0.69230    0.19150    0.04610    1.000
    F72      F        0.24540    0.04530    0.29370    1.000
    O37      O        0.57977    0.97577    0.74813    1.000
    O38      O        0.55196    0.94731    0.78889    1.000
    O39      O        0.47244    0.02887    0.82325    1.000
    O40      O        0.07030    0.04000    0.01980    1.000
    C208     C        0.63480    0.02590    0.73400    1.000
    H73      H        0.62540    0.04230    0.73440    1.000
    C209     C        0.66230    0.02500    0.72930    1.000
    H74      H        0.67230    0.04090    0.72780    1.000
    C210     C        0.76920    0.02190    0.70480    1.000
    C211     C        0.45400    0.04620    0.81310    1.000
    C212     C        0.44050    0.06220    0.83460    1.000
    C213     C        0.42180    0.08210    0.82765    1.000
    H75      H        0.41920    0.08670    0.80960    1.000
    C214     C        0.40710    0.09530    0.84770    1.000
    H76      H        0.39470    0.10860    0.84310    1.000
    C215     C        0.41110    0.08850    0.87480    1.000
    C216     C        0.42980    0.06860    0.88174    1.000
    H77      H        0.43240    0.06410    0.89980    1.000
    C217     C        0.44450    0.05550    0.86160    1.000
    H78      H        0.45690    0.04210    0.86630    1.000
    C218     C        0.39480    0.10160    0.89570    1.000
    C219     C        0.38100    0.11180    0.91240    1.000
    C220     C        0.36300    0.12280    0.93340    1.000
    C221     C        0.36830    0.14860    0.94320    1.000
    C222     C        0.35220    0.15960    0.96360    1.000
    C223     C        0.33070    0.14460    0.97405    1.000
    C224     C        0.32540    0.11880    0.96420    1.000
    C225     C        0.34160    0.10790    0.94390    1.000
    C226     C        0.26680    0.14270    0.97870    1.000
    C227     C        0.24040    0.13510    0.97870    1.000
    C228     C        0.13790    0.08630    0.02360    1.000
    H79      H        0.14390    0.09540    0.03890    1.000
    C229     C        0.11340    0.07260    0.02320    1.000
    H80      H        0.10520    0.06880    0.03980    1.000
    C230     C        0.30250    0.20400    0.97720    1.000
    F73      F        0.35660    0.18260    0.97230    1.000
    F74      F        0.38830    0.16330    0.93420    1.000
    F75      F        0.33900    0.08410    0.93250    1.000
    F76      F        0.30900    0.10400    0.97420    1.000
    F77      F        0.27970    0.14280    0.95410    1.000
    F78      F        0.22630    0.13100    0.95490    1.000
    F79      F        0.30770    0.19150    0.95390    1.000
    F80      F        0.75460    0.04530    0.70630    1.000
    O41      O        0.42023    0.02423    0.74813    1.000
    O42      O        0.44804    0.05269    0.78889    1.000
    O43      O        0.52756    0.97113    0.82325    1.000
    O44      O        0.92970    0.96000    0.01980    1.000
    C231     C        0.36520    0.97410    0.73400    1.000
    H81      H        0.37460    0.95770    0.73440    1.000
    C232     C        0.33770    0.97500    0.72930    1.000
    H82      H        0.32770    0.95910    0.72780    1.000
    C233     C        0.23080    0.97810    0.70480    1.000
    C234     C        0.54600    0.95380    0.81310    1.000
    C235     C        0.55950    0.93780    0.83460    1.000
    C236     C        0.57820    0.91790    0.82765    1.000
    H83      H        0.58080    0.91330    0.80960    1.000
    C237     C        0.59290    0.90470    0.84770    1.000
    H84      H        0.60530    0.89140    0.84310    1.000
    C238     C        0.58890    0.91150    0.87480    1.000
    C239     C        0.57020    0.93140    0.88174    1.000
    H85      H        0.56760    0.93590    0.89980    1.000
    C240     C        0.55550    0.94450    0.86160    1.000
    H86      H        0.54310    0.95790    0.86630    1.000
    C241     C        0.60520    0.89840    0.89570    1.000
    C242     C        0.61900    0.88820    0.91240    1.000
    C243     C        0.63700    0.87720    0.93340    1.000
    C244     C        0.63170    0.85140    0.94320    1.000
    C245     C        0.64780    0.84040    0.96360    1.000
    C246     C        0.66930    0.85540    0.97405    1.000
    C247     C        0.67460    0.88120    0.96420    1.000
    C248     C        0.65840    0.89210    0.94390    1.000
    C249     C        0.73320    0.85730    0.97870    1.000
    C250     C        0.75960    0.86490    0.97870    1.000
    C251     C        0.86210    0.91370    0.02360    1.000
    H87      H        0.85610    0.90460    0.03890    1.000
    C252     C        0.88660    0.92740    0.02320    1.000
    H88      H        0.89480    0.93120    0.03980    1.000
    C253     C        0.69750    0.79600    0.97720    1.000
    F81      F        0.64340    0.81740    0.97230    1.000
    F82      F        0.61170    0.83670    0.93420    1.000
    F83      F        0.66100    0.91590    0.93250    1.000
    F84      F        0.69100    0.89600    0.97420    1.000
    F85      F        0.72030    0.85720    0.95410    1.000
    F86      F        0.77370    0.86900    0.95490    1.000
    F87      F        0.69230    0.80850    0.95390    1.000
    F88      F        0.24540    0.95470    0.70630    1.000
    O45      O        0.57977    0.02423    0.25187    1.000
    O46      O        0.55196    0.05269    0.21111    1.000
    O47      O        0.47244    0.97113    0.17675    1.000
    O48      O        0.07030    0.96000    0.98020    1.000
    C254     C        0.63480    0.97410    0.26600    1.000
    H89      H        0.62540    0.95770    0.26560    1.000
    C255     C        0.66230    0.97500    0.27070    1.000
    H90      H        0.67230    0.95910    0.27220    1.000
    C256     C        0.76920    0.97810    0.29520    1.000
    C257     C        0.45400    0.95380    0.18690    1.000
    C258     C        0.44050    0.93780    0.16540    1.000
    C259     C        0.42180    0.91790    0.17235    1.000
    H91      H        0.41920    0.91330    0.19040    1.000
    C260     C        0.40710    0.90470    0.15230    1.000
    H92      H        0.39470    0.89140    0.15690    1.000
    C261     C        0.41110    0.91150    0.12520    1.000
    C262     C        0.42980    0.93140    0.11826    1.000
    H93      H        0.43240    0.93590    0.10020    1.000
    C263     C        0.44450    0.94450    0.13840    1.000
    H94      H        0.45690    0.95790    0.13370    1.000
    C264     C        0.39480    0.89840    0.10430    1.000
    C265     C        0.38100    0.88820    0.08760    1.000
    C266     C        0.36300    0.87720    0.06660    1.000
    C267     C        0.36830    0.85140    0.05680    1.000
    C268     C        0.35220    0.84040    0.03640    1.000
    C269     C        0.33070    0.85540    0.02595    1.000
    C270     C        0.32540    0.88120    0.03580    1.000
    C271     C        0.34160    0.89210    0.05610    1.000
    C272     C        0.26680    0.85730    0.02130    1.000
    C273     C        0.24040    0.86490    0.02130    1.000
    C274     C        0.13790    0.91370    0.97640    1.000
    H95      H        0.14390    0.90460    0.96110    1.000
    C275     C        0.11340    0.92740    0.97680    1.000
    H96      H        0.10520    0.93120    0.96020    1.000
    C276     C        0.30250    0.79600    0.02280    1.000
    F89      F        0.35660    0.81740    0.02770    1.000
    F90      F        0.38830    0.83670    0.06580    1.000
    F91      F        0.33900    0.91590    0.06750    1.000
    F92      F        0.30900    0.89600    0.02580    1.000
    F93      F        0.27970    0.85720    0.04590    1.000
    F94      F        0.22630    0.86900    0.04510    1.000
    F95      F        0.30770    0.80850    0.04610    1.000
    F96      F        0.75460    0.95470    0.29370    1.000
    O49      O        0.92023    0.75187    0.52423    1.000
    O50      O        0.94804    0.71111    0.55269    1.000
    O51      O        0.02756    0.67675    0.47113    1.000
    O52      O        0.42970    0.48020    0.46000    1.000
    C277     C        0.86520    0.76600    0.47410    1.000
    H97      H        0.87460    0.76560    0.45770    1.000
    C278     C        0.83770    0.77070    0.47500    1.000
    H98      H        0.82770    0.77220    0.45910    1.000
    C279     C        0.73080    0.79520    0.47810    1.000
    C280     C        0.04600    0.68690    0.45380    1.000
    C281     C        0.05950    0.66540    0.43780    1.000
    C282     C        0.07820    0.67235    0.41790    1.000
    H99      H        0.08080    0.69040    0.41330    1.000
    C283     C        0.09290    0.65230    0.40470    1.000
    H100     H        0.10530    0.65690    0.39140    1.000
    C284     C        0.08890    0.62520    0.41150    1.000
    C285     C        0.07020    0.61826    0.43140    1.000
    H101     H        0.06760    0.60020    0.43590    1.000
    C286     C        0.05550    0.63840    0.44450    1.000
    H102     H        0.04310    0.63370    0.45790    1.000
    C287     C        0.10520    0.60430    0.39840    1.000
    C288     C        0.11900    0.58760    0.38820    1.000
    C289     C        0.13700    0.56660    0.37720    1.000
    C290     C        0.13170    0.55680    0.35140    1.000
    C291     C        0.14780    0.53640    0.34040    1.000
    C292     C        0.16930    0.52595    0.35540    1.000
    C293     C        0.17460    0.53580    0.38120    1.000
    C294     C        0.15840    0.55610    0.39210    1.000
    C295     C        0.23320    0.52130    0.35730    1.000
    C296     C        0.25960    0.52130    0.36490    1.000
    C297     C        0.36210    0.47640    0.41370    1.000
    H103     H        0.35610    0.46110    0.40460    1.000
    C298     C        0.38660    0.47680    0.42740    1.000
    H104     H        0.39480    0.46020    0.43120    1.000
    C299     C        0.19750    0.52280    0.29600    1.000
    F97      F        0.14340    0.52770    0.31740    1.000
    F98      F        0.11170    0.56580    0.33670    1.000
    F99      F        0.16100    0.56750    0.41590    1.000
    F100     F        0.19100    0.52580    0.39600    1.000
    F101     F        0.22030    0.54590    0.35720    1.000
    F102     F        0.27370    0.54510    0.36900    1.000
    F103     F        0.19230    0.54610    0.30850    1.000
    F104     F        0.74540    0.79370    0.45470    1.000
    O53      O        0.07977    0.24813    0.52423    1.000
    O54      O        0.05196    0.28889    0.55269    1.000
    O55      O        0.97244    0.32325    0.47113    1.000
    O56      O        0.57030    0.51980    0.46000    1.000
    C300     C        0.13480    0.23400    0.47410    1.000
    H105     H        0.12540    0.23440    0.45770    1.000
    C301     C        0.16230    0.22930    0.47500    1.000
    H106     H        0.17230    0.22780    0.45910    1.000
    C302     C        0.26920    0.20480    0.47810    1.000
    C303     C        0.95400    0.31310    0.45380    1.000
    C304     C        0.94050    0.33460    0.43780    1.000
    C305     C        0.92180    0.32765    0.41790    1.000
    H107     H        0.91920    0.30960    0.41330    1.000
    C306     C        0.90710    0.34770    0.40470    1.000
    H108     H        0.89470    0.34310    0.39140    1.000
    C307     C        0.91110    0.37480    0.41150    1.000
    C308     C        0.92980    0.38174    0.43140    1.000
    H109     H        0.93240    0.39980    0.43590    1.000
    C309     C        0.94450    0.36160    0.44450    1.000
    H110     H        0.95690    0.36630    0.45790    1.000
    C310     C        0.89480    0.39570    0.39840    1.000
    C311     C        0.88100    0.41240    0.38820    1.000
    C312     C        0.86300    0.43340    0.37720    1.000
    C313     C        0.86830    0.44320    0.35140    1.000
    C314     C        0.85220    0.46360    0.34040    1.000
    C315     C        0.83070    0.47405    0.35540    1.000
    C316     C        0.82540    0.46420    0.38120    1.000
    C317     C        0.84160    0.44390    0.39210    1.000
    C318     C        0.76680    0.47870    0.35730    1.000
    C319     C        0.74040    0.47870    0.36490    1.000
    C320     C        0.63790    0.52360    0.41370    1.000
    H111     H        0.64390    0.53890    0.40460    1.000
    C321     C        0.61340    0.52320    0.42740    1.000
    H112     H        0.60520    0.53980    0.43120    1.000
    C322     C        0.80250    0.47720    0.29600    1.000
    F105     F        0.85660    0.47230    0.31740    1.000
    F106     F        0.88830    0.43420    0.33670    1.000
    F107     F        0.83900    0.43250    0.41590    1.000
    F108     F        0.80900    0.47420    0.39600    1.000
    F109     F        0.77970    0.45410    0.35720    1.000
    F110     F        0.72630    0.45490    0.36900    1.000
    F111     F        0.80770    0.45390    0.30850    1.000
    F112     F        0.25460    0.20630    0.45470    1.000
    O57      O        0.92023    0.24813    0.47577    1.000
    O58      O        0.94804    0.28889    0.44731    1.000
    O59      O        0.02756    0.32325    0.52887    1.000
    O60      O        0.42970    0.51980    0.54000    1.000
    C323     C        0.86520    0.23400    0.52590    1.000
    H113     H        0.87460    0.23440    0.54230    1.000
    C324     C        0.83770    0.22930    0.52500    1.000
    H114     H        0.82770    0.22780    0.54090    1.000
    C325     C        0.73080    0.20480    0.52190    1.000
    C326     C        0.04600    0.31310    0.54620    1.000
    C327     C        0.05950    0.33460    0.56220    1.000
    C328     C        0.07820    0.32765    0.58210    1.000
    H115     H        0.08080    0.30960    0.58670    1.000
    C329     C        0.09290    0.34770    0.59530    1.000
    H116     H        0.10530    0.34310    0.60860    1.000
    C330     C        0.08890    0.37480    0.58850    1.000
    C331     C        0.07020    0.38174    0.56860    1.000
    H117     H        0.06760    0.39980    0.56410    1.000
    C332     C        0.05550    0.36160    0.55550    1.000
    H118     H        0.04310    0.36630    0.54210    1.000
    C333     C        0.10520    0.39570    0.60160    1.000
    C334     C        0.11900    0.41240    0.61180    1.000
    C335     C        0.13700    0.43340    0.62280    1.000
    C336     C        0.13170    0.44320    0.64860    1.000
    C337     C        0.14780    0.46360    0.65960    1.000
    C338     C        0.16930    0.47405    0.64460    1.000
    C339     C        0.17460    0.46420    0.61880    1.000
    C340     C        0.15840    0.44390    0.60790    1.000
    C341     C        0.23320    0.47870    0.64270    1.000
    C342     C        0.25960    0.47870    0.63510    1.000
    C343     C        0.36210    0.52360    0.58630    1.000
    H119     H        0.35610    0.53890    0.59540    1.000
    C344     C        0.38660    0.52320    0.57260    1.000
    H120     H        0.39480    0.53980    0.56880    1.000
    C345     C        0.19750    0.47720    0.70400    1.000
    F113     F        0.14340    0.47230    0.68260    1.000
    F114     F        0.11170    0.43420    0.66330    1.000
    F115     F        0.16100    0.43250    0.58410    1.000
    F116     F        0.19100    0.47420    0.60400    1.000
    F117     F        0.22030    0.45410    0.64280    1.000
    F118     F        0.27370    0.45490    0.63100    1.000
    F119     F        0.19230    0.45390    0.69150    1.000
    F120     F        0.74540    0.20630    0.54530    1.000
    O61      O        0.07977    0.75187    0.47577    1.000
    O62      O        0.05196    0.71111    0.44731    1.000
    O63      O        0.97244    0.67675    0.52887    1.000
    O64      O        0.57030    0.48020    0.54000    1.000
    C346     C        0.13480    0.76600    0.52590    1.000
    H121     H        0.12540    0.76560    0.54230    1.000
    C347     C        0.16230    0.77070    0.52500    1.000
    H122     H        0.17230    0.77220    0.54090    1.000
    C348     C        0.26920    0.79520    0.52190    1.000
    C349     C        0.95400    0.68690    0.54620    1.000
    C350     C        0.94050    0.66540    0.56220    1.000
    C351     C        0.92180    0.67235    0.58210    1.000
    H123     H        0.91920    0.69040    0.58670    1.000
    C352     C        0.90710    0.65230    0.59530    1.000
    H124     H        0.89470    0.65690    0.60860    1.000
    C353     C        0.91110    0.62520    0.58850    1.000
    C354     C        0.92980    0.61826    0.56860    1.000
    H125     H        0.93240    0.60020    0.56410    1.000
    C355     C        0.94450    0.63840    0.55550    1.000
    H126     H        0.95690    0.63370    0.54210    1.000
    C356     C        0.89480    0.60430    0.60160    1.000
    C357     C        0.88100    0.58760    0.61180    1.000
    C358     C        0.86300    0.56660    0.62280    1.000
    C359     C        0.86830    0.55680    0.64860    1.000
    C360     C        0.85220    0.53640    0.65960    1.000
    C361     C        0.83070    0.52595    0.64460    1.000
    C362     C        0.82540    0.53580    0.61880    1.000
    C363     C        0.84160    0.55610    0.60790    1.000
    C364     C        0.76680    0.52130    0.64270    1.000
    C365     C        0.74040    0.52130    0.63510    1.000
    C366     C        0.63790    0.47640    0.58630    1.000
    H127     H        0.64390    0.46110    0.59540    1.000
    C367     C        0.61340    0.47680    0.57260    1.000
    H128     H        0.60520    0.46020    0.56880    1.000
    C368     C        0.80250    0.52280    0.70400    1.000
    F121     F        0.85660    0.52770    0.68260    1.000
    F122     F        0.88830    0.56580    0.66330    1.000
    F123     F        0.83900    0.56750    0.58410    1.000
    F124     F        0.80900    0.52580    0.60400    1.000
    F125     F        0.77970    0.54590    0.64280    1.000
    F126     F        0.72630    0.54510    0.63100    1.000
    F127     F        0.80770    0.54610    0.69150    1.000
    F128     F        0.25460    0.79370    0.54530    1.000
    O65      O        0.75187    0.47577    0.07977    1.000
    O66      O        0.71111    0.44731    0.05196    1.000
    O67      O        0.67675    0.52887    0.97244    1.000
    O68      O        0.48020    0.54000    0.57030    1.000
    C369     C        0.76600    0.52590    0.13480    1.000
    H129     H        0.76560    0.54230    0.12540    1.000
    C370     C        0.77070    0.52500    0.16230    1.000
    H130     H        0.77220    0.54090    0.17230    1.000
    C371     C        0.79520    0.52190    0.26920    1.000
    C372     C        0.68690    0.54620    0.95400    1.000
    C373     C        0.66540    0.56220    0.94050    1.000
    C374     C        0.67235    0.58210    0.92180    1.000
    H131     H        0.69040    0.58670    0.91920    1.000
    C375     C        0.65230    0.59530    0.90710    1.000
    H132     H        0.65690    0.60860    0.89470    1.000
    C376     C        0.62520    0.58850    0.91110    1.000
    C377     C        0.61826    0.56860    0.92980    1.000
    H133     H        0.60020    0.56410    0.93240    1.000
    C378     C        0.63840    0.55550    0.94450    1.000
    H134     H        0.63370    0.54210    0.95690    1.000
    C379     C        0.60430    0.60160    0.89480    1.000
    C380     C        0.58760    0.61180    0.88100    1.000
    C381     C        0.56660    0.62280    0.86300    1.000
    C382     C        0.55680    0.64860    0.86830    1.000
    C383     C        0.53640    0.65960    0.85220    1.000
    C384     C        0.52595    0.64460    0.83070    1.000
    C385     C        0.53580    0.61880    0.82540    1.000
    C386     C        0.55610    0.60790    0.84160    1.000
    C387     C        0.52130    0.64270    0.76680    1.000
    C388     C        0.52130    0.63510    0.74040    1.000
    C389     C        0.47640    0.58630    0.63790    1.000
    H135     H        0.46110    0.59540    0.64390    1.000
    C390     C        0.47680    0.57260    0.61340    1.000
    H136     H        0.46020    0.56880    0.60520    1.000
    C391     C        0.52280    0.70400    0.80250    1.000
    F129     F        0.52770    0.68260    0.85660    1.000
    F130     F        0.56580    0.66330    0.88830    1.000
    F131     F        0.56750    0.58410    0.83900    1.000
    F132     F        0.52580    0.60400    0.80900    1.000
    F133     F        0.54590    0.64280    0.77970    1.000
    F134     F        0.54510    0.63100    0.72630    1.000
    F135     F        0.54610    0.69150    0.80770    1.000
    F136     F        0.79370    0.54530    0.25460    1.000
    O69      O        0.24813    0.47577    0.92023    1.000
    O70      O        0.28889    0.44731    0.94804    1.000
    O71      O        0.32325    0.52887    0.02756    1.000
    O72      O        0.51980    0.54000    0.42970    1.000
    C392     C        0.23400    0.52590    0.86520    1.000
    H137     H        0.23440    0.54230    0.87460    1.000
    C393     C        0.22930    0.52500    0.83770    1.000
    H138     H        0.22780    0.54090    0.82770    1.000
    C394     C        0.20480    0.52190    0.73080    1.000
    C395     C        0.31310    0.54620    0.04600    1.000
    C396     C        0.33460    0.56220    0.05950    1.000
    C397     C        0.32765    0.58210    0.07820    1.000
    H139     H        0.30960    0.58670    0.08080    1.000
    C398     C        0.34770    0.59530    0.09290    1.000
    H140     H        0.34310    0.60860    0.10530    1.000
    C399     C        0.37480    0.58850    0.08890    1.000
    C400     C        0.38174    0.56860    0.07020    1.000
    H141     H        0.39980    0.56410    0.06760    1.000
    C401     C        0.36160    0.55550    0.05550    1.000
    H142     H        0.36630    0.54210    0.04310    1.000
    C402     C        0.39570    0.60160    0.10520    1.000
    C403     C        0.41240    0.61180    0.11900    1.000
    C404     C        0.43340    0.62280    0.13700    1.000
    C405     C        0.44320    0.64860    0.13170    1.000
    C406     C        0.46360    0.65960    0.14780    1.000
    C407     C        0.47405    0.64460    0.16930    1.000
    C408     C        0.46420    0.61880    0.17460    1.000
    C409     C        0.44390    0.60790    0.15840    1.000
    C410     C        0.47870    0.64270    0.23320    1.000
    C411     C        0.47870    0.63510    0.25960    1.000
    C412     C        0.52360    0.58630    0.36210    1.000
    H143     H        0.53890    0.59540    0.35610    1.000
    C413     C        0.52320    0.57260    0.38660    1.000
    H144     H        0.53980    0.56880    0.39480    1.000
    C414     C        0.47720    0.70400    0.19750    1.000
    F137     F        0.47230    0.68260    0.14340    1.000
    F138     F        0.43420    0.66330    0.11170    1.000
    F139     F        0.43250    0.58410    0.16100    1.000
    F140     F        0.47420    0.60400    0.19100    1.000
    F141     F        0.45410    0.64280    0.22030    1.000
    F142     F        0.45490    0.63100    0.27370    1.000
    F143     F        0.45390    0.69150    0.19230    1.000
    F144     F        0.20630    0.54530    0.74540    1.000
    O73      O        0.24813    0.52423    0.07977    1.000
    O74      O        0.28889    0.55269    0.05196    1.000
    O75      O        0.32325    0.47113    0.97244    1.000
    O76      O        0.51980    0.46000    0.57030    1.000
    C415     C        0.23400    0.47410    0.13480    1.000
    H145     H        0.23440    0.45770    0.12540    1.000
    C416     C        0.22930    0.47500    0.16230    1.000
    H146     H        0.22780    0.45910    0.17230    1.000
    C417     C        0.20480    0.47810    0.26920    1.000
    C418     C        0.31310    0.45380    0.95400    1.000
    C419     C        0.33460    0.43780    0.94050    1.000
    C420     C        0.32765    0.41790    0.92180    1.000
    H147     H        0.30960    0.41330    0.91920    1.000
    C421     C        0.34770    0.40470    0.90710    1.000
    H148     H        0.34310    0.39140    0.89470    1.000
    C422     C        0.37480    0.41150    0.91110    1.000
    C423     C        0.38174    0.43140    0.92980    1.000
    H149     H        0.39980    0.43590    0.93240    1.000
    C424     C        0.36160    0.44450    0.94450    1.000
    H150     H        0.36630    0.45790    0.95690    1.000
    C425     C        0.39570    0.39840    0.89480    1.000
    C426     C        0.41240    0.38820    0.88100    1.000
    C427     C        0.43340    0.37720    0.86300    1.000
    C428     C        0.44320    0.35140    0.86830    1.000
    C429     C        0.46360    0.34040    0.85220    1.000
    C430     C        0.47405    0.35540    0.83070    1.000
    C431     C        0.46420    0.38120    0.82540    1.000
    C432     C        0.44390    0.39210    0.84160    1.000
    C433     C        0.47870    0.35730    0.76680    1.000
    C434     C        0.47870    0.36490    0.74040    1.000
    C435     C        0.52360    0.41370    0.63790    1.000
    H151     H        0.53890    0.40460    0.64390    1.000
    C436     C        0.52320    0.42740    0.61340    1.000
    H152     H        0.53980    0.43120    0.60520    1.000
    C437     C        0.47720    0.29600    0.80250    1.000
    F145     F        0.47230    0.31740    0.85660    1.000
    F146     F        0.43420    0.33670    0.88830    1.000
    F147     F        0.43250    0.41590    0.83900    1.000
    F148     F        0.47420    0.39600    0.80900    1.000
    F149     F        0.45410    0.35720    0.77970    1.000
    F150     F        0.45490    0.36900    0.72630    1.000
    F151     F        0.45390    0.30850    0.80770    1.000
    F152     F        0.20630    0.45470    0.25460    1.000
    O77      O        0.75187    0.52423    0.92023    1.000
    O78      O        0.71111    0.55269    0.94804    1.000
    O79      O        0.67675    0.47113    0.02756    1.000
    O80      O        0.48020    0.46000    0.42970    1.000
    C438     C        0.76600    0.47410    0.86520    1.000
    H153     H        0.76560    0.45770    0.87460    1.000
    C439     C        0.77070    0.47500    0.83770    1.000
    H154     H        0.77220    0.45910    0.82770    1.000
    C440     C        0.79520    0.47810    0.73080    1.000
    C441     C        0.68690    0.45380    0.04600    1.000
    C442     C        0.66540    0.43780    0.05950    1.000
    C443     C        0.67235    0.41790    0.07820    1.000
    H155     H        0.69040    0.41330    0.08080    1.000
    C444     C        0.65230    0.40470    0.09290    1.000
    H156     H        0.65690    0.39140    0.10530    1.000
    C445     C        0.62520    0.41150    0.08890    1.000
    C446     C        0.61826    0.43140    0.07020    1.000
    H157     H        0.60020    0.43590    0.06760    1.000
    C447     C        0.63840    0.44450    0.05550    1.000
    H158     H        0.63370    0.45790    0.04310    1.000
    C448     C        0.60430    0.39840    0.10520    1.000
    C449     C        0.58760    0.38820    0.11900    1.000
    C450     C        0.56660    0.37720    0.13700    1.000
    C451     C        0.55680    0.35140    0.13170    1.000
    C452     C        0.53640    0.34040    0.14780    1.000
    C453     C        0.52595    0.35540    0.16930    1.000
    C454     C        0.53580    0.38120    0.17460    1.000
    C455     C        0.55610    0.39210    0.15840    1.000
    C456     C        0.52130    0.35730    0.23320    1.000
    C457     C        0.52130    0.36490    0.25960    1.000
    C458     C        0.47640    0.41370    0.36210    1.000
    H159     H        0.46110    0.40460    0.35610    1.000
    C459     C        0.47680    0.42740    0.38660    1.000
    H160     H        0.46020    0.43120    0.39480    1.000
    C460     C        0.52280    0.29600    0.19750    1.000
    F153     F        0.52770    0.31740    0.14340    1.000
    F154     F        0.56580    0.33670    0.11170    1.000
    F155     F        0.56750    0.41590    0.16100    1.000
    F156     F        0.52580    0.39600    0.19100    1.000
    F157     F        0.54590    0.35720    0.22030    1.000
    F158     F        0.54510    0.36900    0.27370    1.000
    F159     F        0.54610    0.30850    0.19230    1.000
    F160     F        0.79370    0.45470    0.74540    1.000
    O81      O        0.47577    0.92023    0.24813    1.000
    O82      O        0.44731    0.94804    0.28889    1.000
    O83      O        0.52887    0.02756    0.32325    1.000
    O84      O        0.54000    0.42970    0.51980    1.000
    C461     C        0.52590    0.86520    0.23400    1.000
    H161     H        0.54230    0.87460    0.23440    1.000
    C462     C        0.52500    0.83770    0.22930    1.000
    H162     H        0.54090    0.82770    0.22780    1.000
    C463     C        0.52190    0.73080    0.20480    1.000
    C464     C        0.54620    0.04600    0.31310    1.000
    C465     C        0.56220    0.05950    0.33460    1.000
    C466     C        0.58210    0.07820    0.32765    1.000
    H163     H        0.58670    0.08080    0.30960    1.000
    C467     C        0.59530    0.09290    0.34770    1.000
    H164     H        0.60860    0.10530    0.34310    1.000
    C468     C        0.58850    0.08890    0.37480    1.000
    C469     C        0.56860    0.07020    0.38174    1.000
    H165     H        0.56410    0.06760    0.39980    1.000
    C470     C        0.55550    0.05550    0.36160    1.000
    H166     H        0.54210    0.04310    0.36630    1.000
    C471     C        0.60160    0.10520    0.39570    1.000
    C472     C        0.61180    0.11900    0.41240    1.000
    C473     C        0.62280    0.13700    0.43340    1.000
    C474     C        0.64860    0.13170    0.44320    1.000
    C475     C        0.65960    0.14780    0.46360    1.000
    C476     C        0.64460    0.16930    0.47405    1.000
    C477     C        0.61880    0.17460    0.46420    1.000
    C478     C        0.60790    0.15840    0.44390    1.000
    C479     C        0.64270    0.23320    0.47870    1.000
    C480     C        0.63510    0.25960    0.47870    1.000
    C481     C        0.58630    0.36210    0.52360    1.000
    H167     H        0.59540    0.35610    0.53890    1.000
    C482     C        0.57260    0.38660    0.52320    1.000
    H168     H        0.56880    0.39480    0.53980    1.000
    C483     C        0.70400    0.19750    0.47720    1.000
    F161     F        0.68260    0.14340    0.47230    1.000
    F162     F        0.66330    0.11170    0.43420    1.000
    F163     F        0.58410    0.16100    0.43250    1.000
    F164     F        0.60400    0.19100    0.47420    1.000
    F165     F        0.64280    0.22030    0.45410    1.000
    F166     F        0.63100    0.27370    0.45490    1.000
    F167     F        0.69150    0.19230    0.45390    1.000
    F168     F        0.54530    0.74540    0.20630    1.000
    O85      O        0.47577    0.07977    0.75187    1.000
    O86      O        0.44731    0.05196    0.71111    1.000
    O87      O        0.52887    0.97244    0.67675    1.000
    O88      O        0.54000    0.57030    0.48020    1.000
    C484     C        0.52590    0.13480    0.76600    1.000
    H169     H        0.54230    0.12540    0.76560    1.000
    C485     C        0.52500    0.16230    0.77070    1.000
    H170     H        0.54090    0.17230    0.77220    1.000
    C486     C        0.52190    0.26920    0.79520    1.000
    C487     C        0.54620    0.95400    0.68690    1.000
    C488     C        0.56220    0.94050    0.66540    1.000
    C489     C        0.58210    0.92180    0.67235    1.000
    H171     H        0.58670    0.91920    0.69040    1.000
    C490     C        0.59530    0.90710    0.65230    1.000
    H172     H        0.60860    0.89470    0.65690    1.000
    C491     C        0.58850    0.91110    0.62520    1.000
    C492     C        0.56860    0.92980    0.61826    1.000
    H173     H        0.56410    0.93240    0.60020    1.000
    C493     C        0.55550    0.94450    0.63840    1.000
    H174     H        0.54210    0.95690    0.63370    1.000
    C494     C        0.60160    0.89480    0.60430    1.000
    C495     C        0.61180    0.88100    0.58760    1.000
    C496     C        0.62280    0.86300    0.56660    1.000
    C497     C        0.64860    0.86830    0.55680    1.000
    C498     C        0.65960    0.85220    0.53640    1.000
    C499     C        0.64460    0.83070    0.52595    1.000
    C500     C        0.61880    0.82540    0.53580    1.000
    C501     C        0.60790    0.84160    0.55610    1.000
    C502     C        0.64270    0.76680    0.52130    1.000
    C503     C        0.63510    0.74040    0.52130    1.000
    C504     C        0.58630    0.63790    0.47640    1.000
    H175     H        0.59540    0.64390    0.46110    1.000
    C505     C        0.57260    0.61340    0.47680    1.000
    H176     H        0.56880    0.60520    0.46020    1.000
    C506     C        0.70400    0.80250    0.52280    1.000
    F169     F        0.68260    0.85660    0.52770    1.000
    F170     F        0.66330    0.88830    0.56580    1.000
    F171     F        0.58410    0.83900    0.56750    1.000
    F172     F        0.60400    0.80900    0.52580    1.000
    F173     F        0.64280    0.77970    0.54590    1.000
    F174     F        0.63100    0.72630    0.54510    1.000
    F175     F        0.69150    0.80770    0.54610    1.000
    F176     F        0.54530    0.25460    0.79370    1.000
    O89      O        0.52423    0.92023    0.75187    1.000
    O90      O        0.55269    0.94804    0.71111    1.000
    O91      O        0.47113    0.02756    0.67675    1.000
    O92      O        0.46000    0.42970    0.48020    1.000
    C507     C        0.47410    0.86520    0.76600    1.000
    H177     H        0.45770    0.87460    0.76560    1.000
    C508     C        0.47500    0.83770    0.77070    1.000
    H178     H        0.45910    0.82770    0.77220    1.000
    C509     C        0.47810    0.73080    0.79520    1.000
    C510     C        0.45380    0.04600    0.68690    1.000
    C511     C        0.43780    0.05950    0.66540    1.000
    C512     C        0.41790    0.07820    0.67235    1.000
    H179     H        0.41330    0.08080    0.69040    1.000
    C513     C        0.40470    0.09290    0.65230    1.000
    H180     H        0.39140    0.10530    0.65690    1.000
    C514     C        0.41150    0.08890    0.62520    1.000
    C515     C        0.43140    0.07020    0.61826    1.000
    H181     H        0.43590    0.06760    0.60020    1.000
    C516     C        0.44450    0.05550    0.63840    1.000
    H182     H        0.45790    0.04310    0.63370    1.000
    C517     C        0.39840    0.10520    0.60430    1.000
    C518     C        0.38820    0.11900    0.58760    1.000
    C519     C        0.37720    0.13700    0.56660    1.000
    C520     C        0.35140    0.13170    0.55680    1.000
    C521     C        0.34040    0.14780    0.53640    1.000
    C522     C        0.35540    0.16930    0.52595    1.000
    C523     C        0.38120    0.17460    0.53580    1.000
    C524     C        0.39210    0.15840    0.55610    1.000
    C525     C        0.35730    0.23320    0.52130    1.000
    C526     C        0.36490    0.25960    0.52130    1.000
    C527     C        0.41370    0.36210    0.47640    1.000
    H183     H        0.40460    0.35610    0.46110    1.000
    C528     C        0.42740    0.38660    0.47680    1.000
    H184     H        0.43120    0.39480    0.46020    1.000
    C529     C        0.29600    0.19750    0.52280    1.000
    F177     F        0.31740    0.14340    0.52770    1.000
    F178     F        0.33670    0.11170    0.56580    1.000
    F179     F        0.41590    0.16100    0.56750    1.000
    F180     F        0.39600    0.19100    0.52580    1.000
    F181     F        0.35720    0.22030    0.54590    1.000
    F182     F        0.36900    0.27370    0.54510    1.000
    F183     F        0.30850    0.19230    0.54610    1.000
    F184     F        0.45470    0.74540    0.79370    1.000
    O93      O        0.52423    0.07977    0.24813    1.000
    O94      O        0.55269    0.05196    0.28889    1.000
    O95      O        0.47113    0.97244    0.32325    1.000
    O96      O        0.46000    0.57030    0.51980    1.000
    C530     C        0.47410    0.13480    0.23400    1.000
    H185     H        0.45770    0.12540    0.23440    1.000
    C531     C        0.47500    0.16230    0.22930    1.000
    H186     H        0.45910    0.17230    0.22780    1.000
    C532     C        0.47810    0.26920    0.20480    1.000
    C533     C        0.45380    0.95400    0.31310    1.000
    C534     C        0.43780    0.94050    0.33460    1.000
    C535     C        0.41790    0.92180    0.32765    1.000
    H187     H        0.41330    0.91920    0.30960    1.000
    C536     C        0.40470    0.90710    0.34770    1.000
    H188     H        0.39140    0.89470    0.34310    1.000
    C537     C        0.41150    0.91110    0.37480    1.000
    C538     C        0.43140    0.92980    0.38174    1.000
    H189     H        0.43590    0.93240    0.39980    1.000
    C539     C        0.44450    0.94450    0.36160    1.000
    H190     H        0.45790    0.95690    0.36630    1.000
    C540     C        0.39840    0.89480    0.39570    1.000
    C541     C        0.38820    0.88100    0.41240    1.000
    C542     C        0.37720    0.86300    0.43340    1.000
    C543     C        0.35140    0.86830    0.44320    1.000
    C544     C        0.34040    0.85220    0.46360    1.000
    C545     C        0.35540    0.83070    0.47405    1.000
    C546     C        0.38120    0.82540    0.46420    1.000
    C547     C        0.39210    0.84160    0.44390    1.000
    C548     C        0.35730    0.76680    0.47870    1.000
    C549     C        0.36490    0.74040    0.47870    1.000
    C550     C        0.41370    0.63790    0.52360    1.000
    H191     H        0.40460    0.64390    0.53890    1.000
    C551     C        0.42740    0.61340    0.52320    1.000
    H192     H        0.43120    0.60520    0.53980    1.000
    C552     C        0.29600    0.80250    0.47720    1.000
    F185     F        0.31740    0.85660    0.47230    1.000
    F186     F        0.33670    0.88830    0.43420    1.000
    F187     F        0.41590    0.83900    0.43250    1.000
    F188     F        0.39600    0.80900    0.47420    1.000
    F189     F        0.35720    0.77970    0.45410    1.000
    F190     F        0.36900    0.72630    0.45490    1.000
    F191     F        0.30850    0.80770    0.45390    1.000
    F192     F        0.45470    0.25460    0.20630    1.000
    O97      O        0.74813    0.57977    0.02423    1.000
    O98      O        0.78889    0.55196    0.05269    1.000
    O99      O        0.82325    0.47244    0.97113    1.000
    O100     O        0.01980    0.07030    0.96000    1.000
    C553     C        0.73400    0.63480    0.97410    1.000
    H193     H        0.73440    0.62540    0.95770    1.000
    C554     C        0.72930    0.66230    0.97500    1.000
    H194     H        0.72780    0.67230    0.95910    1.000
    C555     C        0.70480    0.76920    0.97810    1.000
    C556     C        0.81310    0.45400    0.95380    1.000
    C557     C        0.83460    0.44050    0.93780    1.000
    C558     C        0.82765    0.42180    0.91790    1.000
    H195     H        0.80960    0.41920    0.91330    1.000
    C559     C        0.84770    0.40710    0.90470    1.000
    H196     H        0.84310    0.39470    0.89140    1.000
    C560     C        0.87480    0.41110    0.91150    1.000
    C561     C        0.88174    0.42980    0.93140    1.000
    H197     H        0.89980    0.43240    0.93590    1.000
    C562     C        0.86160    0.44450    0.94450    1.000
    H198     H        0.86630    0.45690    0.95790    1.000
    C563     C        0.89570    0.39480    0.89840    1.000
    C564     C        0.91240    0.38100    0.88820    1.000
    C565     C        0.93340    0.36300    0.87720    1.000
    C566     C        0.94320    0.36830    0.85140    1.000
    C567     C        0.96360    0.35220    0.84040    1.000
    C568     C        0.97405    0.33070    0.85540    1.000
    C569     C        0.96420    0.32540    0.88120    1.000
    C570     C        0.94390    0.34160    0.89210    1.000
    C571     C        0.97870    0.26680    0.85730    1.000
    C572     C        0.97870    0.24040    0.86490    1.000
    C573     C        0.02360    0.13790    0.91370    1.000
    H199     H        0.03890    0.14390    0.90460    1.000
    C574     C        0.02320    0.11340    0.92740    1.000
    H200     H        0.03980    0.10520    0.93120    1.000
    C575     C        0.97720    0.30250    0.79600    1.000
    F193     F        0.97230    0.35660    0.81740    1.000
    F194     F        0.93420    0.38830    0.83670    1.000
    F195     F        0.93250    0.33900    0.91590    1.000
    F196     F        0.97420    0.30900    0.89600    1.000
    F197     F        0.95410    0.27970    0.85720    1.000
    F198     F        0.95490    0.22630    0.86900    1.000
    F199     F        0.95390    0.30770    0.80850    1.000
    F200     F        0.70630    0.75460    0.95470    1.000
    O101     O        0.25187    0.42023    0.02423    1.000
    O102     O        0.21111    0.44804    0.05269    1.000
    O103     O        0.17675    0.52756    0.97113    1.000
    O104     O        0.98020    0.92970    0.96000    1.000
    C576     C        0.26600    0.36520    0.97410    1.000
    H201     H        0.26560    0.37460    0.95770    1.000
    C577     C        0.27070    0.33770    0.97500    1.000
    H202     H        0.27220    0.32770    0.95910    1.000
    C578     C        0.29520    0.23080    0.97810    1.000
    C579     C        0.18690    0.54600    0.95380    1.000
    C580     C        0.16540    0.55950    0.93780    1.000
    C581     C        0.17235    0.57820    0.91790    1.000
    H203     H        0.19040    0.58080    0.91330    1.000
    C582     C        0.15230    0.59290    0.90470    1.000
    H204     H        0.15690    0.60530    0.89140    1.000
    C583     C        0.12520    0.58890    0.91150    1.000
    C584     C        0.11826    0.57020    0.93140    1.000
    H205     H        0.10020    0.56760    0.93590    1.000
    C585     C        0.13840    0.55550    0.94450    1.000
    H206     H        0.13370    0.54310    0.95790    1.000
    C586     C        0.10430    0.60520    0.89840    1.000
    C587     C        0.08760    0.61900    0.88820    1.000
    C588     C        0.06660    0.63700    0.87720    1.000
    C589     C        0.05680    0.63170    0.85140    1.000
    C590     C        0.03640    0.64780    0.84040    1.000
    C591     C        0.02595    0.66930    0.85540    1.000
    C592     C        0.03580    0.67460    0.88120    1.000
    C593     C        0.05610    0.65840    0.89210    1.000
    C594     C        0.02130    0.73320    0.85730    1.000
    C595     C        0.02130    0.75960    0.86490    1.000
    C596     C        0.97640    0.86210    0.91370    1.000
    H207     H        0.96110    0.85610    0.90460    1.000
    C597     C        0.97680    0.88660    0.92740    1.000
    H208     H        0.96020    0.89480    0.93120    1.000
    C598     C        0.02280    0.69750    0.79600    1.000
    F201     F        0.02770    0.64340    0.81740    1.000
    F202     F        0.06580    0.61170    0.83670    1.000
    F203     F        0.06750    0.66100    0.91590    1.000
    F204     F        0.02580    0.69100    0.89600    1.000
    F205     F        0.04590    0.72030    0.85720    1.000
    F206     F        0.04510    0.77370    0.86900    1.000
    F207     F        0.04610    0.69230    0.80850    1.000
    F208     F        0.29370    0.24540    0.95470    1.000
    O105     O        0.25187    0.57977    0.97577    1.000
    O106     O        0.21111    0.55196    0.94731    1.000
    O107     O        0.17675    0.47244    0.02887    1.000
    O108     O        0.98020    0.07030    0.04000    1.000
    C599     C        0.26600    0.63480    0.02590    1.000
    H209     H        0.26560    0.62540    0.04230    1.000
    C600     C        0.27070    0.66230    0.02500    1.000
    H210     H        0.27220    0.67230    0.04090    1.000
    C601     C        0.29520    0.76920    0.02190    1.000
    C602     C        0.18690    0.45400    0.04620    1.000
    C603     C        0.16540    0.44050    0.06220    1.000
    C604     C        0.17235    0.42180    0.08210    1.000
    H211     H        0.19040    0.41920    0.08670    1.000
    C605     C        0.15230    0.40710    0.09530    1.000
    H212     H        0.15690    0.39470    0.10860    1.000
    C606     C        0.12520    0.41110    0.08850    1.000
    C607     C        0.11826    0.42980    0.06860    1.000
    H213     H        0.10020    0.43240    0.06410    1.000
    C608     C        0.13840    0.44450    0.05550    1.000
    H214     H        0.13370    0.45690    0.04210    1.000
    C609     C        0.10430    0.39480    0.10160    1.000
    C610     C        0.08760    0.38100    0.11180    1.000
    C611     C        0.06660    0.36300    0.12280    1.000
    C612     C        0.05680    0.36830    0.14860    1.000
    C613     C        0.03640    0.35220    0.15960    1.000
    C614     C        0.02595    0.33070    0.14460    1.000
    C615     C        0.03580    0.32540    0.11880    1.000
    C616     C        0.05610    0.34160    0.10790    1.000
    C617     C        0.02130    0.26680    0.14270    1.000
    C618     C        0.02130    0.24040    0.13510    1.000
    C619     C        0.97640    0.13790    0.08630    1.000
    H215     H        0.96110    0.14390    0.09540    1.000
    C620     C        0.97680    0.11340    0.07260    1.000
    H216     H        0.96020    0.10520    0.06880    1.000
    C621     C        0.02280    0.30250    0.20400    1.000
    F209     F        0.02770    0.35660    0.18260    1.000
    F210     F        0.06580    0.38830    0.16330    1.000
    F211     F        0.06750    0.33900    0.08410    1.000
    F212     F        0.02580    0.30900    0.10400    1.000
    F213     F        0.04590    0.27970    0.14280    1.000
    F214     F        0.04510    0.22630    0.13100    1.000
    F215     F        0.04610    0.30770    0.19150    1.000
    F216     F        0.29370    0.75460    0.04530    1.000
    O109     O        0.74813    0.42023    0.97577    1.000
    O110     O        0.78889    0.44804    0.94731    1.000
    O111     O        0.82325    0.52756    0.02887    1.000
    O112     O        0.01980    0.92970    0.04000    1.000
    C622     C        0.73400    0.36520    0.02590    1.000
    H217     H        0.73440    0.37460    0.04230    1.000
    C623     C        0.72930    0.33770    0.02500    1.000
    H218     H        0.72780    0.32770    0.04090    1.000
    C624     C        0.70480    0.23080    0.02190    1.000
    C625     C        0.81310    0.54600    0.04620    1.000
    C626     C        0.83460    0.55950    0.06220    1.000
    C627     C        0.82765    0.57820    0.08210    1.000
    H219     H        0.80960    0.58080    0.08670    1.000
    C628     C        0.84770    0.59290    0.09530    1.000
    H220     H        0.84310    0.60530    0.10860    1.000
    C629     C        0.87480    0.58890    0.08850    1.000
    C630     C        0.88174    0.57020    0.06860    1.000
    H221     H        0.89980    0.56760    0.06410    1.000
    C631     C        0.86160    0.55550    0.05550    1.000
    H222     H        0.86630    0.54310    0.04210    1.000
    C632     C        0.89570    0.60520    0.10160    1.000
    C633     C        0.91240    0.61900    0.11180    1.000
    C634     C        0.93340    0.63700    0.12280    1.000
    C635     C        0.94320    0.63170    0.14860    1.000
    C636     C        0.96360    0.64780    0.15960    1.000
    C637     C        0.97405    0.66930    0.14460    1.000
    C638     C        0.96420    0.67460    0.11880    1.000
    C639     C        0.94390    0.65840    0.10790    1.000
    C640     C        0.97870    0.73320    0.14270    1.000
    C641     C        0.97870    0.75960    0.13510    1.000
    C642     C        0.02360    0.86210    0.08630    1.000
    H223     H        0.03890    0.85610    0.09540    1.000
    C643     C        0.02320    0.88660    0.07260    1.000
    H224     H        0.03980    0.89480    0.06880    1.000
    C644     C        0.97720    0.69750    0.20400    1.000
    F217     F        0.97230    0.64340    0.18260    1.000
    F218     F        0.93420    0.61170    0.16330    1.000
    F219     F        0.93250    0.66100    0.08410    1.000
    F220     F        0.97420    0.69100    0.10400    1.000
    F221     F        0.95410    0.72030    0.14280    1.000
    F222     F        0.95490    0.77370    0.13100    1.000
    F223     F        0.95390    0.69230    0.19150    1.000
    F224     F        0.70630    0.24540    0.04530    1.000
    O113     O        0.02423    0.74813    0.57977    1.000
    O114     O        0.05269    0.78889    0.55196    1.000
    O115     O        0.97113    0.82325    0.47244    1.000
    O116     O        0.96000    0.01980    0.07030    1.000
    C645     C        0.97410    0.73400    0.63480    1.000
    H225     H        0.95770    0.73440    0.62540    1.000
    C646     C        0.97500    0.72930    0.66230    1.000
    H226     H        0.95910    0.72780    0.67230    1.000
    C647     C        0.97810    0.70480    0.76920    1.000
    C648     C        0.95380    0.81310    0.45400    1.000
    C649     C        0.93780    0.83460    0.44050    1.000
    C650     C        0.91790    0.82765    0.42180    1.000
    H227     H        0.91330    0.80960    0.41920    1.000
    C651     C        0.90470    0.84770    0.40710    1.000
    H228     H        0.89140    0.84310    0.39470    1.000
    C652     C        0.91150    0.87480    0.41110    1.000
    C653     C        0.93140    0.88174    0.42980    1.000
    H229     H        0.93590    0.89980    0.43240    1.000
    C654     C        0.94450    0.86160    0.44450    1.000
    H230     H        0.95790    0.86630    0.45690    1.000
    C655     C        0.89840    0.89570    0.39480    1.000
    C656     C        0.88820    0.91240    0.38100    1.000
    C657     C        0.87720    0.93340    0.36300    1.000
    C658     C        0.85140    0.94320    0.36830    1.000
    C659     C        0.84040    0.96360    0.35220    1.000
    C660     C        0.85540    0.97405    0.33070    1.000
    C661     C        0.88120    0.96420    0.32540    1.000
    C662     C        0.89210    0.94390    0.34160    1.000
    C663     C        0.85730    0.97870    0.26680    1.000
    C664     C        0.86490    0.97870    0.24040    1.000
    C665     C        0.91370    0.02360    0.13790    1.000
    H231     H        0.90460    0.03890    0.14390    1.000
    C666     C        0.92740    0.02320    0.11340    1.000
    H232     H        0.93120    0.03980    0.10520    1.000
    C667     C        0.79600    0.97720    0.30250    1.000
    F225     F        0.81740    0.97230    0.35660    1.000
    F226     F        0.83670    0.93420    0.38830    1.000
    F227     F        0.91590    0.93250    0.33900    1.000
    F228     F        0.89600    0.97420    0.30900    1.000
    F229     F        0.85720    0.95410    0.27970    1.000
    F230     F        0.86900    0.95490    0.22630    1.000
    F231     F        0.80850    0.95390    0.30770    1.000
    F232     F        0.95470    0.70630    0.75460    1.000
    O117     O        0.02423    0.25187    0.42023    1.000
    O118     O        0.05269    0.21111    0.44804    1.000
    O119     O        0.97113    0.17675    0.52756    1.000
    O120     O        0.96000    0.98020    0.92970    1.000
    C668     C        0.97410    0.26600    0.36520    1.000
    H233     H        0.95770    0.26560    0.37460    1.000
    C669     C        0.97500    0.27070    0.33770    1.000
    H234     H        0.95910    0.27220    0.32770    1.000
    C670     C        0.97810    0.29520    0.23080    1.000
    C671     C        0.95380    0.18690    0.54600    1.000
    C672     C        0.93780    0.16540    0.55950    1.000
    C673     C        0.91790    0.17235    0.57820    1.000
    H235     H        0.91330    0.19040    0.58080    1.000
    C674     C        0.90470    0.15230    0.59290    1.000
    H236     H        0.89140    0.15690    0.60530    1.000
    C675     C        0.91150    0.12520    0.58890    1.000
    C676     C        0.93140    0.11826    0.57020    1.000
    H237     H        0.93590    0.10020    0.56760    1.000
    C677     C        0.94450    0.13840    0.55550    1.000
    H238     H        0.95790    0.13370    0.54310    1.000
    C678     C        0.89840    0.10430    0.60520    1.000
    C679     C        0.88820    0.08760    0.61900    1.000
    C680     C        0.87720    0.06660    0.63700    1.000
    C681     C        0.85140    0.05680    0.63170    1.000
    C682     C        0.84040    0.03640    0.64780    1.000
    C683     C        0.85540    0.02595    0.66930    1.000
    C684     C        0.88120    0.03580    0.67460    1.000
    C685     C        0.89210    0.05610    0.65840    1.000
    C686     C        0.85730    0.02130    0.73320    1.000
    C687     C        0.86490    0.02130    0.75960    1.000
    C688     C        0.91370    0.97640    0.86210    1.000
    H239     H        0.90460    0.96110    0.85610    1.000
    C689     C        0.92740    0.97680    0.88660    1.000
    H240     H        0.93120    0.96020    0.89480    1.000
    C690     C        0.79600    0.02280    0.69750    1.000
    F233     F        0.81740    0.02770    0.64340    1.000
    F234     F        0.83670    0.06580    0.61170    1.000
    F235     F        0.91590    0.06750    0.66100    1.000
    F236     F        0.89600    0.02580    0.69100    1.000
    F237     F        0.85720    0.04590    0.72030    1.000
    F238     F        0.86900    0.04510    0.77370    1.000
    F239     F        0.80850    0.04610    0.69230    1.000
    F240     F        0.95470    0.29370    0.24540    1.000
    O121     O        0.97577    0.25187    0.57977    1.000
    O122     O        0.94731    0.21111    0.55196    1.000
    O123     O        0.02887    0.17675    0.47244    1.000
    O124     O        0.04000    0.98020    0.07030    1.000
    C691     C        0.02590    0.26600    0.63480    1.000
    H241     H        0.04230    0.26560    0.62540    1.000
    C692     C        0.02500    0.27070    0.66230    1.000
    H242     H        0.04090    0.27220    0.67230    1.000
    C693     C        0.02190    0.29520    0.76920    1.000
    C694     C        0.04620    0.18690    0.45400    1.000
    C695     C        0.06220    0.16540    0.44050    1.000
    C696     C        0.08210    0.17235    0.42180    1.000
    H243     H        0.08670    0.19040    0.41920    1.000
    C697     C        0.09530    0.15230    0.40710    1.000
    H244     H        0.10860    0.15690    0.39470    1.000
    C698     C        0.08850    0.12520    0.41110    1.000
    C699     C        0.06860    0.11826    0.42980    1.000
    H245     H        0.06410    0.10020    0.43240    1.000
    C700     C        0.05550    0.13840    0.44450    1.000
    H246     H        0.04210    0.13370    0.45690    1.000
    C701     C        0.10160    0.10430    0.39480    1.000
    C702     C        0.11180    0.08760    0.38100    1.000
    C703     C        0.12280    0.06660    0.36300    1.000
    C704     C        0.14860    0.05680    0.36830    1.000
    C705     C        0.15960    0.03640    0.35220    1.000
    C706     C        0.14460    0.02595    0.33070    1.000
    C707     C        0.11880    0.03580    0.32540    1.000
    C708     C        0.10790    0.05610    0.34160    1.000
    C709     C        0.14270    0.02130    0.26680    1.000
    C710     C        0.13510    0.02130    0.24040    1.000
    C711     C        0.08630    0.97640    0.13790    1.000
    H247     H        0.09540    0.96110    0.14390    1.000
    C712     C        0.07260    0.97680    0.11340    1.000
    H248     H        0.06880    0.96020    0.10520    1.000
    C713     C        0.20400    0.02280    0.30250    1.000
    F241     F        0.18260    0.02770    0.35660    1.000
    F242     F        0.16330    0.06580    0.38830    1.000
    F243     F        0.08410    0.06750    0.33900    1.000
    F244     F        0.10400    0.02580    0.30900    1.000
    F245     F        0.14280    0.04590    0.27970    1.000
    F246     F        0.13100    0.04510    0.22630    1.000
    F247     F        0.19150    0.04610    0.30770    1.000
    F248     F        0.04530    0.29370    0.75460    1.000
    O125     O        0.97577    0.74813    0.42023    1.000
    O126     O        0.94731    0.78889    0.44804    1.000
    O127     O        0.02887    0.82325    0.52756    1.000
    O128     O        0.04000    0.01980    0.92970    1.000
    C714     C        0.02590    0.73400    0.36520    1.000
    H249     H        0.04230    0.73440    0.37460    1.000
    C715     C        0.02500    0.72930    0.33770    1.000
    H250     H        0.04090    0.72780    0.32770    1.000
    C716     C        0.02190    0.70480    0.23080    1.000
    C717     C        0.04620    0.81310    0.54600    1.000
    C718     C        0.06220    0.83460    0.55950    1.000
    C719     C        0.08210    0.82765    0.57820    1.000
    H251     H        0.08670    0.80960    0.58080    1.000
    C720     C        0.09530    0.84770    0.59290    1.000
    H252     H        0.10860    0.84310    0.60530    1.000
    C721     C        0.08850    0.87480    0.58890    1.000
    C722     C        0.06860    0.88174    0.57020    1.000
    H253     H        0.06410    0.89980    0.56760    1.000
    C723     C        0.05550    0.86160    0.55550    1.000
    H254     H        0.04210    0.86630    0.54310    1.000
    C724     C        0.10160    0.89570    0.60520    1.000
    C725     C        0.11180    0.91240    0.61900    1.000
    C726     C        0.12280    0.93340    0.63700    1.000
    C727     C        0.14860    0.94320    0.63170    1.000
    C728     C        0.15960    0.96360    0.64780    1.000
    C729     C        0.14460    0.97405    0.66930    1.000
    C730     C        0.11880    0.96420    0.67460    1.000
    C731     C        0.10790    0.94390    0.65840    1.000
    C732     C        0.14270    0.97870    0.73320    1.000
    C733     C        0.13510    0.97870    0.75960    1.000
    C734     C        0.08630    0.02360    0.86210    1.000
    H255     H        0.09540    0.03890    0.85610    1.000
    C735     C        0.07260    0.02320    0.88660    1.000
    H256     H        0.06880    0.03980    0.89480    1.000
    C736     C        0.20400    0.97720    0.69750    1.000
    F249     F        0.18260    0.97230    0.64340    1.000
    F250     F        0.16330    0.93420    0.61170    1.000
    F251     F        0.08410    0.93250    0.66100    1.000
    F252     F        0.10400    0.97420    0.69100    1.000
    F253     F        0.14280    0.95410    0.72030    1.000
    F254     F        0.13100    0.95490    0.77370    1.000
    F255     F        0.19150    0.95390    0.69230    1.000
    F256     F        0.04530    0.70630    0.24540    1.000
    O129     O        0.57977    0.02423    0.74813    1.000
    O130     O        0.55196    0.05269    0.78889    1.000
    O131     O        0.47244    0.97113    0.82325    1.000
    O132     O        0.07030    0.96000    0.01980    1.000
    C737     C        0.63480    0.97410    0.73400    1.000
    H257     H        0.62540    0.95770    0.73440    1.000
    C738     C        0.66230    0.97500    0.72930    1.000
    H258     H        0.67230    0.95910    0.72780    1.000
    C739     C        0.76920    0.97810    0.70480    1.000
    C740     C        0.45400    0.95380    0.81310    1.000
    C741     C        0.44050    0.93780    0.83460    1.000
    C742     C        0.42180    0.91790    0.82765    1.000
    H259     H        0.41920    0.91330    0.80960    1.000
    C743     C        0.40710    0.90470    0.84770    1.000
    H260     H        0.39470    0.89140    0.84310    1.000
    C744     C        0.41110    0.91150    0.87480    1.000
    C745     C        0.42980    0.93140    0.88174    1.000
    H261     H        0.43240    0.93590    0.89980    1.000
    C746     C        0.44450    0.94450    0.86160    1.000
    H262     H        0.45690    0.95790    0.86630    1.000
    C747     C        0.39480    0.89840    0.89570    1.000
    C748     C        0.38100    0.88820    0.91240    1.000
    C749     C        0.36300    0.87720    0.93340    1.000
    C750     C        0.36830    0.85140    0.94320    1.000
    C751     C        0.35220    0.84040    0.96360    1.000
    C752     C        0.33070    0.85540    0.97405    1.000
    C753     C        0.32540    0.88120    0.96420    1.000
    C754     C        0.34160    0.89210    0.94390    1.000
    C755     C        0.26680    0.85730    0.97870    1.000
    C756     C        0.24040    0.86490    0.97870    1.000
    C757     C        0.13790    0.91370    0.02360    1.000
    H263     H        0.14390    0.90460    0.03890    1.000
    C758     C        0.11340    0.92740    0.02320    1.000
    H264     H        0.10520    0.93120    0.03980    1.000
    C759     C        0.30250    0.79600    0.97720    1.000
    F257     F        0.35660    0.81740    0.97230    1.000
    F258     F        0.38830    0.83670    0.93420    1.000
    F259     F        0.33900    0.91590    0.93250    1.000
    F260     F        0.30900    0.89600    0.97420    1.000
    F261     F        0.27970    0.85720    0.95410    1.000
    F262     F        0.22630    0.86900    0.95490    1.000
    F263     F        0.30770    0.80850    0.95390    1.000
    F264     F        0.75460    0.95470    0.70630    1.000
    O133     O        0.42023    0.02423    0.25187    1.000
    O134     O        0.44804    0.05269    0.21111    1.000
    O135     O        0.52756    0.97113    0.17675    1.000
    O136     O        0.92970    0.96000    0.98020    1.000
    C760     C        0.36520    0.97410    0.26600    1.000
    H265     H        0.37460    0.95770    0.26560    1.000
    C761     C        0.33770    0.97500    0.27070    1.000
    H266     H        0.32770    0.95910    0.27220    1.000
    C762     C        0.23080    0.97810    0.29520    1.000
    C763     C        0.54600    0.95380    0.18690    1.000
    C764     C        0.55950    0.93780    0.16540    1.000
    C765     C        0.57820    0.91790    0.17235    1.000
    H267     H        0.58080    0.91330    0.19040    1.000
    C766     C        0.59290    0.90470    0.15230    1.000
    H268     H        0.60530    0.89140    0.15690    1.000
    C767     C        0.58890    0.91150    0.12520    1.000
    C768     C        0.57020    0.93140    0.11826    1.000
    H269     H        0.56760    0.93590    0.10020    1.000
    C769     C        0.55550    0.94450    0.13840    1.000
    H270     H        0.54310    0.95790    0.13370    1.000
    C770     C        0.60520    0.89840    0.10430    1.000
    C771     C        0.61900    0.88820    0.08760    1.000
    C772     C        0.63700    0.87720    0.06660    1.000
    C773     C        0.63170    0.85140    0.05680    1.000
    C774     C        0.64780    0.84040    0.03640    1.000
    C775     C        0.66930    0.85540    0.02595    1.000
    C776     C        0.67460    0.88120    0.03580    1.000
    C777     C        0.65840    0.89210    0.05610    1.000
    C778     C        0.73320    0.85730    0.02130    1.000
    C779     C        0.75960    0.86490    0.02130    1.000
    C780     C        0.86210    0.91370    0.97640    1.000
    H271     H        0.85610    0.90460    0.96110    1.000
    C781     C        0.88660    0.92740    0.97680    1.000
    H272     H        0.89480    0.93120    0.96020    1.000
    C782     C        0.69750    0.79600    0.02280    1.000
    F265     F        0.64340    0.81740    0.02770    1.000
    F266     F        0.61170    0.83670    0.06580    1.000
    F267     F        0.66100    0.91590    0.06750    1.000
    F268     F        0.69100    0.89600    0.02580    1.000
    F269     F        0.72030    0.85720    0.04590    1.000
    F270     F        0.77370    0.86900    0.04510    1.000
    F271     F        0.69230    0.80850    0.04610    1.000
    F272     F        0.24540    0.95470    0.29370    1.000
    O137     O        0.57977    0.97577    0.25187    1.000
    O138     O        0.55196    0.94731    0.21111    1.000
    O139     O        0.47244    0.02887    0.17675    1.000
    O140     O        0.07030    0.04000    0.98020    1.000
    C783     C        0.63480    0.02590    0.26600    1.000
    H273     H        0.62540    0.04230    0.26560    1.000
    C784     C        0.66230    0.02500    0.27070    1.000
    H274     H        0.67230    0.04090    0.27220    1.000
    C785     C        0.76920    0.02190    0.29520    1.000
    C786     C        0.45400    0.04620    0.18690    1.000
    C787     C        0.44050    0.06220    0.16540    1.000
    C788     C        0.42180    0.08210    0.17235    1.000
    H275     H        0.41920    0.08670    0.19040    1.000
    C789     C        0.40710    0.09530    0.15230    1.000
    H276     H        0.39470    0.10860    0.15690    1.000
    C790     C        0.41110    0.08850    0.12520    1.000
    C791     C        0.42980    0.06860    0.11826    1.000
    H277     H        0.43240    0.06410    0.10020    1.000
    C792     C        0.44450    0.05550    0.13840    1.000
    H278     H        0.45690    0.04210    0.13370    1.000
    C793     C        0.39480    0.10160    0.10430    1.000
    C794     C        0.38100    0.11180    0.08760    1.000
    C795     C        0.36300    0.12280    0.06660    1.000
    C796     C        0.36830    0.14860    0.05680    1.000
    C797     C        0.35220    0.15960    0.03640    1.000
    C798     C        0.33070    0.14460    0.02595    1.000
    C799     C        0.32540    0.11880    0.03580    1.000
    C800     C        0.34160    0.10790    0.05610    1.000
    C801     C        0.26680    0.14270    0.02130    1.000
    C802     C        0.24040    0.13510    0.02130    1.000
    C803     C        0.13790    0.08630    0.97640    1.000
    H279     H        0.14390    0.09540    0.96110    1.000
    C804     C        0.11340    0.07260    0.97680    1.000
    H280     H        0.10520    0.06880    0.96020    1.000
    C805     C        0.30250    0.20400    0.02280    1.000
    F273     F        0.35660    0.18260    0.02770    1.000
    F274     F        0.38830    0.16330    0.06580    1.000
    F275     F        0.33900    0.08410    0.06750    1.000
    F276     F        0.30900    0.10400    0.02580    1.000
    F277     F        0.27970    0.14280    0.04590    1.000
    F278     F        0.22630    0.13100    0.04510    1.000
    F279     F        0.30770    0.19150    0.04610    1.000
    F280     F        0.75460    0.04530    0.29370    1.000
    O141     O        0.42023    0.97577    0.74813    1.000
    O142     O        0.44804    0.94731    0.78889    1.000
    O143     O        0.52756    0.02887    0.82325    1.000
    O144     O        0.92970    0.04000    0.01980    1.000
    C806     C        0.36520    0.02590    0.73400    1.000
    H281     H        0.37460    0.04230    0.73440    1.000
    C807     C        0.33770    0.02500    0.72930    1.000
    H282     H        0.32770    0.04090    0.72780    1.000
    C808     C        0.23080    0.02190    0.70480    1.000
    C809     C        0.54600    0.04620    0.81310    1.000
    C810     C        0.55950    0.06220    0.83460    1.000
    C811     C        0.57820    0.08210    0.82765    1.000
    H283     H        0.58080    0.08670    0.80960    1.000
    C812     C        0.59290    0.09530    0.84770    1.000
    H284     H        0.60530    0.10860    0.84310    1.000
    C813     C        0.58890    0.08850    0.87480    1.000
    C814     C        0.57020    0.06860    0.88174    1.000
    H285     H        0.56760    0.06410    0.89980    1.000
    C815     C        0.55550    0.05550    0.86160    1.000
    H286     H        0.54310    0.04210    0.86630    1.000
    C816     C        0.60520    0.10160    0.89570    1.000
    C817     C        0.61900    0.11180    0.91240    1.000
    C818     C        0.63700    0.12280    0.93340    1.000
    C819     C        0.63170    0.14860    0.94320    1.000
    C820     C        0.64780    0.15960    0.96360    1.000
    C821     C        0.66930    0.14460    0.97405    1.000
    C822     C        0.67460    0.11880    0.96420    1.000
    C823     C        0.65840    0.10790    0.94390    1.000
    C824     C        0.73320    0.14270    0.97870    1.000
    C825     C        0.75960    0.13510    0.97870    1.000
    C826     C        0.86210    0.08630    0.02360    1.000
    H287     H        0.85610    0.09540    0.03890    1.000
    C827     C        0.88660    0.07260    0.02320    1.000
    H288     H        0.89480    0.06880    0.03980    1.000
    C828     C        0.69750    0.20400    0.97720    1.000
    F281     F        0.64340    0.18260    0.97230    1.000
    F282     F        0.61170    0.16330    0.93420    1.000
    F283     F        0.66100    0.08410    0.93250    1.000
    F284     F        0.69100    0.10400    0.97420    1.000
    F285     F        0.72030    0.14280    0.95410    1.000
    F286     F        0.77370    0.13100    0.95490    1.000
    F287     F        0.69230    0.19150    0.95390    1.000
    F288     F        0.24540    0.04530    0.70630    1.000
    O145     O        0.07977    0.24813    0.47577    1.000
    O146     O        0.05196    0.28889    0.44731    1.000
    O147     O        0.97244    0.32325    0.52887    1.000
    O148     O        0.57030    0.51980    0.54000    1.000
    C829     C        0.13480    0.23400    0.52590    1.000
    H289     H        0.12540    0.23440    0.54230    1.000
    C830     C        0.16230    0.22930    0.52500    1.000
    H290     H        0.17230    0.22780    0.54090    1.000
    C831     C        0.26920    0.20480    0.52190    1.000
    C832     C        0.95400    0.31310    0.54620    1.000
    C833     C        0.94050    0.33460    0.56220    1.000
    C834     C        0.92180    0.32765    0.58210    1.000
    H291     H        0.91920    0.30960    0.58670    1.000
    C835     C        0.90710    0.34770    0.59530    1.000
    H292     H        0.89470    0.34310    0.60860    1.000
    C836     C        0.91110    0.37480    0.58850    1.000
    C837     C        0.92980    0.38174    0.56860    1.000
    H293     H        0.93240    0.39980    0.56410    1.000
    C838     C        0.94450    0.36160    0.55550    1.000
    H294     H        0.95690    0.36630    0.54210    1.000
    C839     C        0.89480    0.39570    0.60160    1.000
    C840     C        0.88100    0.41240    0.61180    1.000
    C841     C        0.86300    0.43340    0.62280    1.000
    C842     C        0.86830    0.44320    0.64860    1.000
    C843     C        0.85220    0.46360    0.65960    1.000
    C844     C        0.83070    0.47405    0.64460    1.000
    C845     C        0.82540    0.46420    0.61880    1.000
    C846     C        0.84160    0.44390    0.60790    1.000
    C847     C        0.76680    0.47870    0.64270    1.000
    C848     C        0.74040    0.47870    0.63510    1.000
    C849     C        0.63790    0.52360    0.58630    1.000
    H295     H        0.64390    0.53890    0.59540    1.000
    C850     C        0.61340    0.52320    0.57260    1.000
    H296     H        0.60520    0.53980    0.56880    1.000
    C851     C        0.80250    0.47720    0.70400    1.000
    F289     F        0.85660    0.47230    0.68260    1.000
    F290     F        0.88830    0.43420    0.66330    1.000
    F291     F        0.83900    0.43250    0.58410    1.000
    F292     F        0.80900    0.47420    0.60400    1.000
    F293     F        0.77970    0.45410    0.64280    1.000
    F294     F        0.72630    0.45490    0.63100    1.000
    F295     F        0.80770    0.45390    0.69150    1.000
    F296     F        0.25460    0.20630    0.54530    1.000
    O149     O        0.92023    0.75187    0.47577    1.000
    O150     O        0.94804    0.71111    0.44731    1.000
    O151     O        0.02756    0.67675    0.52887    1.000
    O152     O        0.42970    0.48020    0.54000    1.000
    C852     C        0.86520    0.76600    0.52590    1.000
    H297     H        0.87460    0.76560    0.54230    1.000
    C853     C        0.83770    0.77070    0.52500    1.000
    H298     H        0.82770    0.77220    0.54090    1.000
    C854     C        0.73080    0.79520    0.52190    1.000
    C855     C        0.04600    0.68690    0.54620    1.000
    C856     C        0.05950    0.66540    0.56220    1.000
    C857     C        0.07820    0.67235    0.58210    1.000
    H299     H        0.08080    0.69040    0.58670    1.000
    C858     C        0.09290    0.65230    0.59530    1.000
    H300     H        0.10530    0.65690    0.60860    1.000
    C859     C        0.08890    0.62520    0.58850    1.000
    C860     C        0.07020    0.61826    0.56860    1.000
    H301     H        0.06760    0.60020    0.56410    1.000
    C861     C        0.05550    0.63840    0.55550    1.000
    H302     H        0.04310    0.63370    0.54210    1.000
    C862     C        0.10520    0.60430    0.60160    1.000
    C863     C        0.11900    0.58760    0.61180    1.000
    C864     C        0.13700    0.56660    0.62280    1.000
    C865     C        0.13170    0.55680    0.64860    1.000
    C866     C        0.14780    0.53640    0.65960    1.000
    C867     C        0.16930    0.52595    0.64460    1.000
    C868     C        0.17460    0.53580    0.61880    1.000
    C869     C        0.15840    0.55610    0.60790    1.000
    C870     C        0.23320    0.52130    0.64270    1.000
    C871     C        0.25960    0.52130    0.63510    1.000
    C872     C        0.36210    0.47640    0.58630    1.000
    H303     H        0.35610    0.46110    0.59540    1.000
    C873     C        0.38660    0.47680    0.57260    1.000
    H304     H        0.39480    0.46020    0.56880    1.000
    C874     C        0.19750    0.52280    0.70400    1.000
    F297     F        0.14340    0.52770    0.68260    1.000
    F298     F        0.11170    0.56580    0.66330    1.000
    F299     F        0.16100    0.56750    0.58410    1.000
    F300     F        0.19100    0.52580    0.60400    1.000
    F301     F        0.22030    0.54590    0.64280    1.000
    F302     F        0.27370    0.54510    0.63100    1.000
    F303     F        0.19230    0.54610    0.69150    1.000
    F304     F        0.74540    0.79370    0.54530    1.000
    O153     O        0.07977    0.75187    0.52423    1.000
    O154     O        0.05196    0.71111    0.55269    1.000
    O155     O        0.97244    0.67675    0.47113    1.000
    O156     O        0.57030    0.48020    0.46000    1.000
    C875     C        0.13480    0.76600    0.47410    1.000
    H305     H        0.12540    0.76560    0.45770    1.000
    C876     C        0.16230    0.77070    0.47500    1.000
    H306     H        0.17230    0.77220    0.45910    1.000
    C877     C        0.26920    0.79520    0.47810    1.000
    C878     C        0.95400    0.68690    0.45380    1.000
    C879     C        0.94050    0.66540    0.43780    1.000
    C880     C        0.92180    0.67235    0.41790    1.000
    H307     H        0.91920    0.69040    0.41330    1.000
    C881     C        0.90710    0.65230    0.40470    1.000
    H308     H        0.89470    0.65690    0.39140    1.000
    C882     C        0.91110    0.62520    0.41150    1.000
    C883     C        0.92980    0.61826    0.43140    1.000
    H309     H        0.93240    0.60020    0.43590    1.000
    C884     C        0.94450    0.63840    0.44450    1.000
    H310     H        0.95690    0.63370    0.45790    1.000
    C885     C        0.89480    0.60430    0.39840    1.000
    C886     C        0.88100    0.58760    0.38820    1.000
    C887     C        0.86300    0.56660    0.37720    1.000
    C888     C        0.86830    0.55680    0.35140    1.000
    C889     C        0.85220    0.53640    0.34040    1.000
    C890     C        0.83070    0.52595    0.35540    1.000
    C891     C        0.82540    0.53580    0.38120    1.000
    C892     C        0.84160    0.55610    0.39210    1.000
    C893     C        0.76680    0.52130    0.35730    1.000
    C894     C        0.74040    0.52130    0.36490    1.000
    C895     C        0.63790    0.47640    0.41370    1.000
    H311     H        0.64390    0.46110    0.40460    1.000
    C896     C        0.61340    0.47680    0.42740    1.000
    H312     H        0.60520    0.46020    0.43120    1.000
    C897     C        0.80250    0.52280    0.29600    1.000
    F305     F        0.85660    0.52770    0.31740    1.000
    F306     F        0.88830    0.56580    0.33670    1.000
    F307     F        0.83900    0.56750    0.41590    1.000
    F308     F        0.80900    0.52580    0.39600    1.000
    F309     F        0.77970    0.54590    0.35720    1.000
    F310     F        0.72630    0.54510    0.36900    1.000
    F311     F        0.80770    0.54610    0.30850    1.000
    F312     F        0.25460    0.79370    0.45470    1.000
    O157     O        0.92023    0.24813    0.52423    1.000
    O158     O        0.94804    0.28889    0.55269    1.000
    O159     O        0.02756    0.32325    0.47113    1.000
    O160     O        0.42970    0.51980    0.46000    1.000
    C898     C        0.86520    0.23400    0.47410    1.000
    H313     H        0.87460    0.23440    0.45770    1.000
    C899     C        0.83770    0.22930    0.47500    1.000
    H314     H        0.82770    0.22780    0.45910    1.000
    C900     C        0.73080    0.20480    0.47810    1.000
    C901     C        0.04600    0.31310    0.45380    1.000
    C902     C        0.05950    0.33460    0.43780    1.000
    C903     C        0.07820    0.32765    0.41790    1.000
    H315     H        0.08080    0.30960    0.41330    1.000
    C904     C        0.09290    0.34770    0.40470    1.000
    H316     H        0.10530    0.34310    0.39140    1.000
    C905     C        0.08890    0.37480    0.41150    1.000
    C906     C        0.07020    0.38174    0.43140    1.000
    H317     H        0.06760    0.39980    0.43590    1.000
    C907     C        0.05550    0.36160    0.44450    1.000
    H318     H        0.04310    0.36630    0.45790    1.000
    C908     C        0.10520    0.39570    0.39840    1.000
    C909     C        0.11900    0.41240    0.38820    1.000
    C910     C        0.13700    0.43340    0.37720    1.000
    C911     C        0.13170    0.44320    0.35140    1.000
    C912     C        0.14780    0.46360    0.34040    1.000
    C913     C        0.16930    0.47405    0.35540    1.000
    C914     C        0.17460    0.46420    0.38120    1.000
    C915     C        0.15840    0.44390    0.39210    1.000
    C916     C        0.23320    0.47870    0.35730    1.000
    C917     C        0.25960    0.47870    0.36490    1.000
    C918     C        0.36210    0.52360    0.41370    1.000
    H319     H        0.35610    0.53890    0.40460    1.000
    C919     C        0.38660    0.52320    0.42740    1.000
    H320     H        0.39480    0.53980    0.43120    1.000
    C920     C        0.19750    0.47720    0.29600    1.000
    F313     F        0.14340    0.47230    0.31740    1.000
    F314     F        0.11170    0.43420    0.33670    1.000
    F315     F        0.16100    0.43250    0.41590    1.000
    F316     F        0.19100    0.47420    0.39600    1.000
    F317     F        0.22030    0.45410    0.35720    1.000
    F318     F        0.27370    0.45490    0.36900    1.000
    F319     F        0.19230    0.45390    0.30850    1.000
    F320     F        0.74540    0.20630    0.45470    1.000
    O161     O        0.24813    0.52423    0.92023    1.000
    O162     O        0.28889    0.55269    0.94804    1.000
    O163     O        0.32325    0.47113    0.02756    1.000
    O164     O        0.51980    0.46000    0.42970    1.000
    C921     C        0.23400    0.47410    0.86520    1.000
    H321     H        0.23440    0.45770    0.87460    1.000
    C922     C        0.22930    0.47500    0.83770    1.000
    H322     H        0.22780    0.45910    0.82770    1.000
    C923     C        0.20480    0.47810    0.73080    1.000
    C924     C        0.31310    0.45380    0.04600    1.000
    C925     C        0.33460    0.43780    0.05950    1.000
    C926     C        0.32765    0.41790    0.07820    1.000
    H323     H        0.30960    0.41330    0.08080    1.000
    C927     C        0.34770    0.40470    0.09290    1.000
    H324     H        0.34310    0.39140    0.10530    1.000
    C928     C        0.37480    0.41150    0.08890    1.000
    C929     C        0.38174    0.43140    0.07020    1.000
    H325     H        0.39980    0.43590    0.06760    1.000
    C930     C        0.36160    0.44450    0.05550    1.000
    H326     H        0.36630    0.45790    0.04310    1.000
    C931     C        0.39570    0.39840    0.10520    1.000
    C932     C        0.41240    0.38820    0.11900    1.000
    C933     C        0.43340    0.37720    0.13700    1.000
    C934     C        0.44320    0.35140    0.13170    1.000
    C935     C        0.46360    0.34040    0.14780    1.000
    C936     C        0.47405    0.35540    0.16930    1.000
    C937     C        0.46420    0.38120    0.17460    1.000
    C938     C        0.44390    0.39210    0.15840    1.000
    C939     C        0.47870    0.35730    0.23320    1.000
    C940     C        0.47870    0.36490    0.25960    1.000
    C941     C        0.52360    0.41370    0.36210    1.000
    H327     H        0.53890    0.40460    0.35610    1.000
    C942     C        0.52320    0.42740    0.38660    1.000
    H328     H        0.53980    0.43120    0.39480    1.000
    C943     C        0.47720    0.29600    0.19750    1.000
    F321     F        0.47230    0.31740    0.14340    1.000
    F322     F        0.43420    0.33670    0.11170    1.000
    F323     F        0.43250    0.41590    0.16100    1.000
    F324     F        0.47420    0.39600    0.19100    1.000
    F325     F        0.45410    0.35720    0.22030    1.000
    F326     F        0.45490    0.36900    0.27370    1.000
    F327     F        0.45390    0.30850    0.19230    1.000
    F328     F        0.20630    0.45470    0.74540    1.000
    O165     O        0.75187    0.52423    0.07977    1.000
    O166     O        0.71111    0.55269    0.05196    1.000
    O167     O        0.67675    0.47113    0.97244    1.000
    O168     O        0.48020    0.46000    0.57030    1.000
    C944     C        0.76600    0.47410    0.13480    1.000
    H329     H        0.76560    0.45770    0.12540    1.000
    C945     C        0.77070    0.47500    0.16230    1.000
    H330     H        0.77220    0.45910    0.17230    1.000
    C946     C        0.79520    0.47810    0.26920    1.000
    C947     C        0.68690    0.45380    0.95400    1.000
    C948     C        0.66540    0.43780    0.94050    1.000
    C949     C        0.67235    0.41790    0.92180    1.000
    H331     H        0.69040    0.41330    0.91920    1.000
    C950     C        0.65230    0.40470    0.90710    1.000
    H332     H        0.65690    0.39140    0.89470    1.000
    C951     C        0.62520    0.41150    0.91110    1.000
    C952     C        0.61826    0.43140    0.92980    1.000
    H333     H        0.60020    0.43590    0.93240    1.000
    C953     C        0.63840    0.44450    0.94450    1.000
    H334     H        0.63370    0.45790    0.95690    1.000
    C954     C        0.60430    0.39840    0.89480    1.000
    C955     C        0.58760    0.38820    0.88100    1.000
    C956     C        0.56660    0.37720    0.86300    1.000
    C957     C        0.55680    0.35140    0.86830    1.000
    C958     C        0.53640    0.34040    0.85220    1.000
    C959     C        0.52595    0.35540    0.83070    1.000
    C960     C        0.53580    0.38120    0.82540    1.000
    C961     C        0.55610    0.39210    0.84160    1.000
    C962     C        0.52130    0.35730    0.76680    1.000
    C963     C        0.52130    0.36490    0.74040    1.000
    C964     C        0.47640    0.41370    0.63790    1.000
    H335     H        0.46110    0.40460    0.64390    1.000
    C965     C        0.47680    0.42740    0.61340    1.000
    H336     H        0.46020    0.43120    0.60520    1.000
    C966     C        0.52280    0.29600    0.80250    1.000
    F329     F        0.52770    0.31740    0.85660    1.000
    F330     F        0.56580    0.33670    0.88830    1.000
    F331     F        0.56750    0.41590    0.83900    1.000
    F332     F        0.52580    0.39600    0.80900    1.000
    F333     F        0.54590    0.35720    0.77970    1.000
    F334     F        0.54510    0.36900    0.72630    1.000
    F335     F        0.54610    0.30850    0.80770    1.000
    F336     F        0.79370    0.45470    0.25460    1.000
    O169     O        0.75187    0.47577    0.92023    1.000
    O170     O        0.71111    0.44731    0.94804    1.000
    O171     O        0.67675    0.52887    0.02756    1.000
    O172     O        0.48020    0.54000    0.42970    1.000
    C967     C        0.76600    0.52590    0.86520    1.000
    H337     H        0.76560    0.54230    0.87460    1.000
    C968     C        0.77070    0.52500    0.83770    1.000
    H338     H        0.77220    0.54090    0.82770    1.000
    C969     C        0.79520    0.52190    0.73080    1.000
    C970     C        0.68690    0.54620    0.04600    1.000
    C971     C        0.66540    0.56220    0.05950    1.000
    C972     C        0.67235    0.58210    0.07820    1.000
    H339     H        0.69040    0.58670    0.08080    1.000
    C973     C        0.65230    0.59530    0.09290    1.000
    H340     H        0.65690    0.60860    0.10530    1.000
    C974     C        0.62520    0.58850    0.08890    1.000
    C975     C        0.61826    0.56860    0.07020    1.000
    H341     H        0.60020    0.56410    0.06760    1.000
    C976     C        0.63840    0.55550    0.05550    1.000
    H342     H        0.63370    0.54210    0.04310    1.000
    C977     C        0.60430    0.60160    0.10520    1.000
    C978     C        0.58760    0.61180    0.11900    1.000
    C979     C        0.56660    0.62280    0.13700    1.000
    C980     C        0.55680    0.64860    0.13170    1.000
    C981     C        0.53640    0.65960    0.14780    1.000
    C982     C        0.52595    0.64460    0.16930    1.000
    C983     C        0.53580    0.61880    0.17460    1.000
    C984     C        0.55610    0.60790    0.15840    1.000
    C985     C        0.52130    0.64270    0.23320    1.000
    C986     C        0.52130    0.63510    0.25960    1.000
    C987     C        0.47640    0.58630    0.36210    1.000
    H343     H        0.46110    0.59540    0.35610    1.000
    C988     C        0.47680    0.57260    0.38660    1.000
    H344     H        0.46020    0.56880    0.39480    1.000
    C989     C        0.52280    0.70400    0.19750    1.000
    F337     F        0.52770    0.68260    0.14340    1.000
    F338     F        0.56580    0.66330    0.11170    1.000
    F339     F        0.56750    0.58410    0.16100    1.000
    F340     F        0.52580    0.60400    0.19100    1.000
    F341     F        0.54590    0.64280    0.22030    1.000
    F342     F        0.54510    0.63100    0.27370    1.000
    F343     F        0.54610    0.69150    0.19230    1.000
    F344     F        0.79370    0.54530    0.74540    1.000
    O173     O        0.24813    0.47577    0.07977    1.000
    O174     O        0.28889    0.44731    0.05196    1.000
    O175     O        0.32325    0.52887    0.97244    1.000
    O176     O        0.51980    0.54000    0.57030    1.000
    C990     C        0.23400    0.52590    0.13480    1.000
    H345     H        0.23440    0.54230    0.12540    1.000
    C991     C        0.22930    0.52500    0.16230    1.000
    H346     H        0.22780    0.54090    0.17230    1.000
    C992     C        0.20480    0.52190    0.26920    1.000
    C993     C        0.31310    0.54620    0.95400    1.000
    C994     C        0.33460    0.56220    0.94050    1.000
    C995     C        0.32765    0.58210    0.92180    1.000
    H347     H        0.30960    0.58670    0.91920    1.000
    C996     C        0.34770    0.59530    0.90710    1.000
    H348     H        0.34310    0.60860    0.89470    1.000
    C997     C        0.37480    0.58850    0.91110    1.000
    C998     C        0.38174    0.56860    0.92980    1.000
    H349     H        0.39980    0.56410    0.93240    1.000
    C999     C        0.36160    0.55550    0.94450    1.000
    H350     H        0.36630    0.54210    0.95690    1.000
    C1000    C        0.39570    0.60160    0.89480    1.000
    C1001    C        0.41240    0.61180    0.88100    1.000
    C1002    C        0.43340    0.62280    0.86300    1.000
    C1003    C        0.44320    0.64860    0.86830    1.000
    C1004    C        0.46360    0.65960    0.85220    1.000
    C1005    C        0.47405    0.64460    0.83070    1.000
    C1006    C        0.46420    0.61880    0.82540    1.000
    C1007    C        0.44390    0.60790    0.84160    1.000
    C1008    C        0.47870    0.64270    0.76680    1.000
    C1009    C        0.47870    0.63510    0.74040    1.000
    C1010    C        0.52360    0.58630    0.63790    1.000
    H351     H        0.53890    0.59540    0.64390    1.000
    C1011    C        0.52320    0.57260    0.61340    1.000
    H352     H        0.53980    0.56880    0.60520    1.000
    C1012    C        0.47720    0.70400    0.80250    1.000
    F345     F        0.47230    0.68260    0.85660    1.000
    F346     F        0.43420    0.66330    0.88830    1.000
    F347     F        0.43250    0.58410    0.83900    1.000
    F348     F        0.47420    0.60400    0.80900    1.000
    F349     F        0.45410    0.64280    0.77970    1.000
    F350     F        0.45490    0.63100    0.72630    1.000
    F351     F        0.45390    0.69150    0.80770    1.000
    F352     F        0.20630    0.54530    0.25460    1.000
    O177     O        0.52423    0.07977    0.75187    1.000
    O178     O        0.55269    0.05196    0.71111    1.000
    O179     O        0.47113    0.97244    0.67675    1.000
    O180     O        0.46000    0.57030    0.48020    1.000
    C1013    C        0.47410    0.13480    0.76600    1.000
    H353     H        0.45770    0.12540    0.76560    1.000
    C1014    C        0.47500    0.16230    0.77070    1.000
    H354     H        0.45910    0.17230    0.77220    1.000
    C1015    C        0.47810    0.26920    0.79520    1.000
    C1016    C        0.45380    0.95400    0.68690    1.000
    C1017    C        0.43780    0.94050    0.66540    1.000
    C1018    C        0.41790    0.92180    0.67235    1.000
    H355     H        0.41330    0.91920    0.69040    1.000
    C1019    C        0.40470    0.90710    0.65230    1.000
    H356     H        0.39140    0.89470    0.65690    1.000
    C1020    C        0.41150    0.91110    0.62520    1.000
    C1021    C        0.43140    0.92980    0.61826    1.000
    H357     H        0.43590    0.93240    0.60020    1.000
    C1022    C        0.44450    0.94450    0.63840    1.000
    H358     H        0.45790    0.95690    0.63370    1.000
    C1023    C        0.39840    0.89480    0.60430    1.000
    C1024    C        0.38820    0.88100    0.58760    1.000
    C1025    C        0.37720    0.86300    0.56660    1.000
    C1026    C        0.35140    0.86830    0.55680    1.000
    C1027    C        0.34040    0.85220    0.53640    1.000
    C1028    C        0.35540    0.83070    0.52595    1.000
    C1029    C        0.38120    0.82540    0.53580    1.000
    C1030    C        0.39210    0.84160    0.55610    1.000
    C1031    C        0.35730    0.76680    0.52130    1.000
    C1032    C        0.36490    0.74040    0.52130    1.000
    C1033    C        0.41370    0.63790    0.47640    1.000
    H359     H        0.40460    0.64390    0.46110    1.000
    C1034    C        0.42740    0.61340    0.47680    1.000
    H360     H        0.43120    0.60520    0.46020    1.000
    C1035    C        0.29600    0.80250    0.52280    1.000
    F353     F        0.31740    0.85660    0.52770    1.000
    F354     F        0.33670    0.88830    0.56580    1.000
    F355     F        0.41590    0.83900    0.56750    1.000
    F356     F        0.39600    0.80900    0.52580    1.000
    F357     F        0.35720    0.77970    0.54590    1.000
    F358     F        0.36900    0.72630    0.54510    1.000
    F359     F        0.30850    0.80770    0.54610    1.000
    F360     F        0.45470    0.25460    0.79370    1.000
    O181     O        0.52423    0.92023    0.24813    1.000
    O182     O        0.55269    0.94804    0.28889    1.000
    O183     O        0.47113    0.02756    0.32325    1.000
    O184     O        0.46000    0.42970    0.51980    1.000
    C1036    C        0.47410    0.86520    0.23400    1.000
    H361     H        0.45770    0.87460    0.23440    1.000
    C1037    C        0.47500    0.83770    0.22930    1.000
    H362     H        0.45910    0.82770    0.22780    1.000
    C1038    C        0.47810    0.73080    0.20480    1.000
    C1039    C        0.45380    0.04600    0.31310    1.000
    C1040    C        0.43780    0.05950    0.33460    1.000
    C1041    C        0.41790    0.07820    0.32765    1.000
    H363     H        0.41330    0.08080    0.30960    1.000
    C1042    C        0.40470    0.09290    0.34770    1.000
    H364     H        0.39140    0.10530    0.34310    1.000
    C1043    C        0.41150    0.08890    0.37480    1.000
    C1044    C        0.43140    0.07020    0.38174    1.000
    H365     H        0.43590    0.06760    0.39980    1.000
    C1045    C        0.44450    0.05550    0.36160    1.000
    H366     H        0.45790    0.04310    0.36630    1.000
    C1046    C        0.39840    0.10520    0.39570    1.000
    C1047    C        0.38820    0.11900    0.41240    1.000
    C1048    C        0.37720    0.13700    0.43340    1.000
    C1049    C        0.35140    0.13170    0.44320    1.000
    C1050    C        0.34040    0.14780    0.46360    1.000
    C1051    C        0.35540    0.16930    0.47405    1.000
    C1052    C        0.38120    0.17460    0.46420    1.000
    C1053    C        0.39210    0.15840    0.44390    1.000
    C1054    C        0.35730    0.23320    0.47870    1.000
    C1055    C        0.36490    0.25960    0.47870    1.000
    C1056    C        0.41370    0.36210    0.52360    1.000
    H367     H        0.40460    0.35610    0.53890    1.000
    C1057    C        0.42740    0.38660    0.52320    1.000
    H368     H        0.43120    0.39480    0.53980    1.000
    C1058    C        0.29600    0.19750    0.47720    1.000
    F361     F        0.31740    0.14340    0.47230    1.000
    F362     F        0.33670    0.11170    0.43420    1.000
    F363     F        0.41590    0.16100    0.43250    1.000
    F364     F        0.39600    0.19100    0.47420    1.000
    F365     F        0.35720    0.22030    0.45410    1.000
    F366     F        0.36900    0.27370    0.45490    1.000
    F367     F        0.30850    0.19230    0.45390    1.000
    F368     F        0.45470    0.74540    0.20630    1.000
    O185     O        0.47577    0.07977    0.24813    1.000
    O186     O        0.44731    0.05196    0.28889    1.000
    O187     O        0.52887    0.97244    0.32325    1.000
    O188     O        0.54000    0.57030    0.51980    1.000
    C1059    C        0.52590    0.13480    0.23400    1.000
    H369     H        0.54230    0.12540    0.23440    1.000
    C1060    C        0.52500    0.16230    0.22930    1.000
    H370     H        0.54090    0.17230    0.22780    1.000
    C1061    C        0.52190    0.26920    0.20480    1.000
    C1062    C        0.54620    0.95400    0.31310    1.000
    C1063    C        0.56220    0.94050    0.33460    1.000
    C1064    C        0.58210    0.92180    0.32765    1.000
    H371     H        0.58670    0.91920    0.30960    1.000
    C1065    C        0.59530    0.90710    0.34770    1.000
    H372     H        0.60860    0.89470    0.34310    1.000
    C1066    C        0.58850    0.91110    0.37480    1.000
    C1067    C        0.56860    0.92980    0.38174    1.000
    H373     H        0.56410    0.93240    0.39980    1.000
    C1068    C        0.55550    0.94450    0.36160    1.000
    H374     H        0.54210    0.95690    0.36630    1.000
    C1069    C        0.60160    0.89480    0.39570    1.000
    C1070    C        0.61180    0.88100    0.41240    1.000
    C1071    C        0.62280    0.86300    0.43340    1.000
    C1072    C        0.64860    0.86830    0.44320    1.000
    C1073    C        0.65960    0.85220    0.46360    1.000
    C1074    C        0.64460    0.83070    0.47405    1.000
    C1075    C        0.61880    0.82540    0.46420    1.000
    C1076    C        0.60790    0.84160    0.44390    1.000
    C1077    C        0.64270    0.76680    0.47870    1.000
    C1078    C        0.63510    0.74040    0.47870    1.000
    C1079    C        0.58630    0.63790    0.52360    1.000
    H375     H        0.59540    0.64390    0.53890    1.000
    C1080    C        0.57260    0.61340    0.52320    1.000
    H376     H        0.56880    0.60520    0.53980    1.000
    C1081    C        0.70400    0.80250    0.47720    1.000
    F369     F        0.68260    0.85660    0.47230    1.000
    F370     F        0.66330    0.88830    0.43420    1.000
    F371     F        0.58410    0.83900    0.43250    1.000
    F372     F        0.60400    0.80900    0.47420    1.000
    F373     F        0.64280    0.77970    0.45410    1.000
    F374     F        0.63100    0.72630    0.45490    1.000
    F375     F        0.69150    0.80770    0.45390    1.000
    F376     F        0.54530    0.25460    0.20630    1.000
    O189     O        0.47577    0.92023    0.75187    1.000
    O190     O        0.44731    0.94804    0.71111    1.000
    O191     O        0.52887    0.02756    0.67675    1.000
    O192     O        0.54000    0.42970    0.48020    1.000
    C1082    C        0.52590    0.86520    0.76600    1.000
    H377     H        0.54230    0.87460    0.76560    1.000
    C1083    C        0.52500    0.83770    0.77070    1.000
    H378     H        0.54090    0.82770    0.77220    1.000
    C1084    C        0.52190    0.73080    0.79520    1.000
    C1085    C        0.54620    0.04600    0.68690    1.000
    C1086    C        0.56220    0.05950    0.66540    1.000
    C1087    C        0.58210    0.07820    0.67235    1.000
    H379     H        0.58670    0.08080    0.69040    1.000
    C1088    C        0.59530    0.09290    0.65230    1.000
    H380     H        0.60860    0.10530    0.65690    1.000
    C1089    C        0.58850    0.08890    0.62520    1.000
    C1090    C        0.56860    0.07020    0.61826    1.000
    H381     H        0.56410    0.06760    0.60020    1.000
    C1091    C        0.55550    0.05550    0.63840    1.000
    H382     H        0.54210    0.04310    0.63370    1.000
    C1092    C        0.60160    0.10520    0.60430    1.000
    C1093    C        0.61180    0.11900    0.58760    1.000
    C1094    C        0.62280    0.13700    0.56660    1.000
    C1095    C        0.64860    0.13170    0.55680    1.000
    C1096    C        0.65960    0.14780    0.53640    1.000
    C1097    C        0.64460    0.16930    0.52595    1.000
    C1098    C        0.61880    0.17460    0.53580    1.000
    C1099    C        0.60790    0.15840    0.55610    1.000
    C1100    C        0.64270    0.23320    0.52130    1.000
    C1101    C        0.63510    0.25960    0.52130    1.000
    C1102    C        0.58630    0.36210    0.47640    1.000
    H383     H        0.59540    0.35610    0.46110    1.000
    C1103    C        0.57260    0.38660    0.47680    1.000
    H384     H        0.56880    0.39480    0.46020    1.000
    C1104    C        0.70400    0.19750    0.52280    1.000
    F377     F        0.68260    0.14340    0.52770    1.000
    F378     F        0.66330    0.11170    0.56580    1.000
    F379     F        0.58410    0.16100    0.56750    1.000
    F380     F        0.60400    0.19100    0.52580    1.000
    F381     F        0.64280    0.22030    0.54590    1.000
    F382     F        0.63100    0.27370    0.54510    1.000
    F383     F        0.69150    0.19230    0.54610    1.000
    F384     F        0.54530    0.74540    0.79370    1.000
    Zr1      Zr       0.25000    0.46440    0.96440    1.000
    Zr2      Zr       0.75000    0.53560    0.96440    1.000
    Zr3      Zr       0.75000    0.46440    0.03560    1.000
    Zr4      Zr       0.25000    0.53560    0.03560    1.000
    Zr5      Zr       0.96440    0.25000    0.46440    1.000
    Zr6      Zr       0.96440    0.75000    0.53560    1.000
    Zr7      Zr       0.03560    0.75000    0.46440    1.000
    Zr8      Zr       0.03560    0.25000    0.53560    1.000
    Zr9      Zr       0.46440    0.96440    0.25000    1.000
    Zr10     Zr       0.53560    0.96440    0.75000    1.000
    Zr11     Zr       0.46440    0.03560    0.75000    1.000
    Zr12     Zr       0.53560    0.03560    0.25000    1.000
    Zr13     Zr       0.75000    0.53560    0.03560    1.000
    Zr14     Zr       0.25000    0.46440    0.03560    1.000
    Zr15     Zr       0.25000    0.53560    0.96440    1.000
    Zr16     Zr       0.75000    0.46440    0.96440    1.000
    Zr17     Zr       0.03560    0.75000    0.53560    1.000
    Zr18     Zr       0.03560    0.25000    0.46440    1.000
    Zr19     Zr       0.96440    0.25000    0.53560    1.000
    Zr20     Zr       0.96440    0.75000    0.46440    1.000
    Zr21     Zr       0.53560    0.03560    0.75000    1.000
    Zr22     Zr       0.46440    0.03560    0.25000    1.000
    Zr23     Zr       0.53560    0.96440    0.25000    1.000
    Zr24     Zr       0.46440    0.96440    0.75000    1.000
    Zr25     Zr       0.19962    0.50000    0.00000    1.000
    Zr26     Zr       0.80038    0.50000    0.00000    1.000
    Zr27     Zr       0.00000    0.19962    0.50000    1.000
    Zr28     Zr       0.00000    0.80038    0.50000    1.000
    Zr29     Zr       0.50000    0.00000    0.19962    1.000
    Zr30     Zr       0.50000    0.00000    0.80038    1.000
    Zr31     Zr       0.00000    0.69962    0.50000    1.000
    Zr32     Zr       0.00000    0.30038    0.50000    1.000
    Zr33     Zr       0.69962    0.50000    0.00000    1.000
    Zr34     Zr       0.30038    0.50000    0.00000    1.000
    Zr35     Zr       0.50000    0.00000    0.30038    1.000
    Zr36     Zr       0.50000    0.00000    0.69962    1.000
    Zr37     Zr       0.97299    0.97299    0.02701    1.000
    Zr38     Zr       0.02701    0.02701    0.02701    1.000
    Zr39     Zr       0.02701    0.97299    0.97299    1.000
    Zr40     Zr       0.97299    0.02701    0.97299    1.000
    Zr41     Zr       0.47299    0.47299    0.47299    1.000
    Zr42     Zr       0.52701    0.52701    0.47299    1.000
    Zr43     Zr       0.47299    0.52701    0.52701    1.000
    Zr44     Zr       0.52701    0.47299    0.52701    1.000
    Zr45     Zr       0.02701    0.02701    0.97299    1.000
    Zr46     Zr       0.97299    0.97299    0.97299    1.000
    Zr47     Zr       0.97299    0.02701    0.02701    1.000
    Zr48     Zr       0.02701    0.97299    0.02701    1.000
    Zr49     Zr       0.52701    0.52701    0.52701    1.000
    Zr50     Zr       0.47299    0.47299    0.52701    1.000
    Zr51     Zr       0.52701    0.47299    0.47299    1.000
    Zr52     Zr       0.47299    0.52701    0.47299    1.000
    O193     O        0.22216    0.46032    0.00000    1.000
    O194     O        0.27268    0.46781    0.00000    1.000
    O195     O        0.01780    0.95660    0.00000    1.000
    C1105    C        0.25290    0.40930    0.00000    1.000
    C1106    C        0.26170    0.37890    0.00000    1.000
    C1107    C        0.27320    0.32490    0.00000    1.000
    C1108    C        0.27830    0.29630    0.00000    1.000
    C1109    C        0.28560    0.27320    0.00000    1.000
    C1110    C        0.29370    0.24810    0.00000    1.000
    O196     O        0.77784    0.53968    0.00000    1.000
    O197     O        0.72732    0.53219    0.00000    1.000
    O198     O        0.98220    0.04340    0.00000    1.000
    C1111    C        0.74710    0.59070    0.00000    1.000
    C1112    C        0.73830    0.62110    0.00000    1.000
    C1113    C        0.72680    0.67510    0.00000    1.000
    C1114    C        0.72170    0.70370    0.00000    1.000
    C1115    C        0.71440    0.72680    0.00000    1.000
    C1116    C        0.70630    0.75190    0.00000    1.000
    O199     O        0.77784    0.46032    0.00000    1.000
    O200     O        0.72732    0.46781    0.00000    1.000
    O201     O        0.98220    0.95660    0.00000    1.000
    C1117    C        0.74710    0.40930    0.00000    1.000
    C1118    C        0.73830    0.37890    0.00000    1.000
    C1119    C        0.72680    0.32490    0.00000    1.000
    C1120    C        0.72170    0.29630    0.00000    1.000
    C1121    C        0.71440    0.27320    0.00000    1.000
    C1122    C        0.70630    0.24810    0.00000    1.000
    O202     O        0.22216    0.53968    0.00000    1.000
    O203     O        0.27268    0.53219    0.00000    1.000
    O204     O        0.01780    0.04340    0.00000    1.000
    C1123    C        0.25290    0.59070    0.00000    1.000
    C1124    C        0.26170    0.62110    0.00000    1.000
    C1125    C        0.27320    0.67510    0.00000    1.000
    C1126    C        0.27830    0.70370    0.00000    1.000
    C1127    C        0.28560    0.72680    0.00000    1.000
    C1128    C        0.29370    0.75190    0.00000    1.000
    O205     O        0.00000    0.22216    0.46032    1.000
    O206     O        0.00000    0.27268    0.46781    1.000
    O207     O        0.00000    0.01780    0.95660    1.000
    C1129    C        0.00000    0.25290    0.40930    1.000
    C1130    C        0.00000    0.26170    0.37890    1.000
    C1131    C        0.00000    0.27320    0.32490    1.000
    C1132    C        0.00000    0.27830    0.29630    1.000
    C1133    C        0.00000    0.28560    0.27320    1.000
    C1134    C        0.00000    0.29370    0.24810    1.000
    O208     O        0.00000    0.77784    0.53968    1.000
    O209     O        0.00000    0.72732    0.53219    1.000
    O210     O        0.00000    0.98220    0.04340    1.000
    C1135    C        0.00000    0.74710    0.59070    1.000
    C1136    C        0.00000    0.73830    0.62110    1.000
    C1137    C        0.00000    0.72680    0.67510    1.000
    C1138    C        0.00000    0.72170    0.70370    1.000
    C1139    C        0.00000    0.71440    0.72680    1.000
    C1140    C        0.00000    0.70630    0.75190    1.000
    O211     O        0.00000    0.77784    0.46032    1.000
    O212     O        0.00000    0.72732    0.46781    1.000
    O213     O        0.00000    0.98220    0.95660    1.000
    C1141    C        0.00000    0.74710    0.40930    1.000
    C1142    C        0.00000    0.73830    0.37890    1.000
    C1143    C        0.00000    0.72680    0.32490    1.000
    C1144    C        0.00000    0.72170    0.29630    1.000
    C1145    C        0.00000    0.71440    0.27320    1.000
    C1146    C        0.00000    0.70630    0.24810    1.000
    O214     O        0.00000    0.22216    0.53968    1.000
    O215     O        0.00000    0.27268    0.53219    1.000
    O216     O        0.00000    0.01780    0.04340    1.000
    C1147    C        0.00000    0.25290    0.59070    1.000
    C1148    C        0.00000    0.26170    0.62110    1.000
    C1149    C        0.00000    0.27320    0.67510    1.000
    C1150    C        0.00000    0.27830    0.70370    1.000
    C1151    C        0.00000    0.28560    0.72680    1.000
    C1152    C        0.00000    0.29370    0.75190    1.000
    O217     O        0.46032    0.00000    0.22216    1.000
    O218     O        0.46781    0.00000    0.27268    1.000
    O219     O        0.95660    0.00000    0.01780    1.000
    C1153    C        0.40930    0.00000    0.25290    1.000
    C1154    C        0.37890    0.00000    0.26170    1.000
    C1155    C        0.32490    0.00000    0.27320    1.000
    C1156    C        0.29630    0.00000    0.27830    1.000
    C1157    C        0.27320    0.00000    0.28560    1.000
    C1158    C        0.24810    0.00000    0.29370    1.000
    O220     O        0.53968    0.00000    0.77784    1.000
    O221     O        0.53219    0.00000    0.72732    1.000
    O222     O        0.04340    0.00000    0.98220    1.000
    C1159    C        0.59070    0.00000    0.74710    1.000
    C1160    C        0.62110    0.00000    0.73830    1.000
    C1161    C        0.67510    0.00000    0.72680    1.000
    C1162    C        0.70370    0.00000    0.72170    1.000
    C1163    C        0.72680    0.00000    0.71440    1.000
    C1164    C        0.75190    0.00000    0.70630    1.000
    O223     O        0.46032    0.00000    0.77784    1.000
    O224     O        0.46781    0.00000    0.72732    1.000
    O225     O        0.95660    0.00000    0.98220    1.000
    C1165    C        0.40930    0.00000    0.74710    1.000
    C1166    C        0.37890    0.00000    0.73830    1.000
    C1167    C        0.32490    0.00000    0.72680    1.000
    C1168    C        0.29630    0.00000    0.72170    1.000
    C1169    C        0.27320    0.00000    0.71440    1.000
    C1170    C        0.24810    0.00000    0.70630    1.000
    O226     O        0.53968    0.00000    0.22216    1.000
    O227     O        0.53219    0.00000    0.27268    1.000
    O228     O        0.04340    0.00000    0.01780    1.000
    C1171    C        0.59070    0.00000    0.25290    1.000
    C1172    C        0.62110    0.00000    0.26170    1.000
    C1173    C        0.67510    0.00000    0.27320    1.000
    C1174    C        0.70370    0.00000    0.27830    1.000
    C1175    C        0.72680    0.00000    0.28560    1.000
    C1176    C        0.75190    0.00000    0.29370    1.000
    O229     O        0.96032    0.72216    0.50000    1.000
    O230     O        0.96781    0.77268    0.50000    1.000
    O231     O        0.45660    0.51780    0.50000    1.000
    C1177    C        0.90930    0.75290    0.50000    1.000
    C1178    C        0.87890    0.76170    0.50000    1.000
    C1179    C        0.82490    0.77320    0.50000    1.000
    C1180    C        0.79630    0.77830    0.50000    1.000
    C1181    C        0.77320    0.78560    0.50000    1.000
    C1182    C        0.74810    0.79370    0.50000    1.000
    O232     O        0.03968    0.27784    0.50000    1.000
    O233     O        0.03219    0.22732    0.50000    1.000
    O234     O        0.54340    0.48220    0.50000    1.000
    C1183    C        0.09070    0.24710    0.50000    1.000
    C1184    C        0.12110    0.23830    0.50000    1.000
    C1185    C        0.17510    0.22680    0.50000    1.000
    C1186    C        0.20370    0.22170    0.50000    1.000
    C1187    C        0.22680    0.21440    0.50000    1.000
    C1188    C        0.25190    0.20630    0.50000    1.000
    O235     O        0.96032    0.27784    0.50000    1.000
    O236     O        0.96781    0.22732    0.50000    1.000
    O237     O        0.45660    0.48220    0.50000    1.000
    C1189    C        0.90930    0.24710    0.50000    1.000
    C1190    C        0.87890    0.23830    0.50000    1.000
    C1191    C        0.82490    0.22680    0.50000    1.000
    C1192    C        0.79630    0.22170    0.50000    1.000
    C1193    C        0.77320    0.21440    0.50000    1.000
    C1194    C        0.74810    0.20630    0.50000    1.000
    O238     O        0.03968    0.72216    0.50000    1.000
    O239     O        0.03219    0.77268    0.50000    1.000
    O240     O        0.54340    0.51780    0.50000    1.000
    C1195    C        0.09070    0.75290    0.50000    1.000
    C1196    C        0.12110    0.76170    0.50000    1.000
    C1197    C        0.17510    0.77320    0.50000    1.000
    C1198    C        0.20370    0.77830    0.50000    1.000
    C1199    C        0.22680    0.78560    0.50000    1.000
    C1200    C        0.25190    0.79370    0.50000    1.000
    O241     O        0.72216    0.50000    0.03968    1.000
    O242     O        0.77268    0.50000    0.03219    1.000
    O243     O        0.51780    0.50000    0.54340    1.000
    C1201    C        0.75290    0.50000    0.09070    1.000
    C1202    C        0.76170    0.50000    0.12110    1.000
    C1203    C        0.77320    0.50000    0.17510    1.000
    C1204    C        0.77830    0.50000    0.20370    1.000
    C1205    C        0.78560    0.50000    0.22680    1.000
    C1206    C        0.79370    0.50000    0.25190    1.000
    O244     O        0.27784    0.50000    0.96032    1.000
    O245     O        0.22732    0.50000    0.96781    1.000
    O246     O        0.48220    0.50000    0.45660    1.000
    C1207    C        0.24710    0.50000    0.90930    1.000
    C1208    C        0.23830    0.50000    0.87890    1.000
    C1209    C        0.22680    0.50000    0.82490    1.000
    C1210    C        0.22170    0.50000    0.79630    1.000
    C1211    C        0.21440    0.50000    0.77320    1.000
    C1212    C        0.20630    0.50000    0.74810    1.000
    O247     O        0.27784    0.50000    0.03968    1.000
    O248     O        0.22732    0.50000    0.03219    1.000
    O249     O        0.48220    0.50000    0.54340    1.000
    C1213    C        0.24710    0.50000    0.09070    1.000
    C1214    C        0.23830    0.50000    0.12110    1.000
    C1215    C        0.22680    0.50000    0.17510    1.000
    C1216    C        0.22170    0.50000    0.20370    1.000
    C1217    C        0.21440    0.50000    0.22680    1.000
    C1218    C        0.20630    0.50000    0.25190    1.000
    O250     O        0.72216    0.50000    0.96032    1.000
    O251     O        0.77268    0.50000    0.96781    1.000
    O252     O        0.51780    0.50000    0.45660    1.000
    C1219    C        0.75290    0.50000    0.90930    1.000
    C1220    C        0.76170    0.50000    0.87890    1.000
    C1221    C        0.77320    0.50000    0.82490    1.000
    C1222    C        0.77830    0.50000    0.79630    1.000
    C1223    C        0.78560    0.50000    0.77320    1.000
    C1224    C        0.79370    0.50000    0.74810    1.000
    O253     O        0.50000    0.96032    0.27784    1.000
    O254     O        0.50000    0.96781    0.22732    1.000
    O255     O        0.50000    0.45660    0.48220    1.000
    C1225    C        0.50000    0.90930    0.24710    1.000
    C1226    C        0.50000    0.87890    0.23830    1.000
    C1227    C        0.50000    0.82490    0.22680    1.000
    C1228    C        0.50000    0.79630    0.22170    1.000
    C1229    C        0.50000    0.77320    0.21440    1.000
    C1230    C        0.50000    0.74810    0.20630    1.000
    O256     O        0.50000    0.03968    0.72216    1.000
    O257     O        0.50000    0.03219    0.77268    1.000
    O258     O        0.50000    0.54340    0.51780    1.000
    C1231    C        0.50000    0.09070    0.75290    1.000
    C1232    C        0.50000    0.12110    0.76170    1.000
    C1233    C        0.50000    0.17510    0.77320    1.000
    C1234    C        0.50000    0.20370    0.77830    1.000
    C1235    C        0.50000    0.22680    0.78560    1.000
    C1236    C        0.50000    0.25190    0.79370    1.000
    O259     O        0.50000    0.96032    0.72216    1.000
    O260     O        0.50000    0.96781    0.77268    1.000
    O261     O        0.50000    0.45660    0.51780    1.000
    C1237    C        0.50000    0.90930    0.75290    1.000
    C1238    C        0.50000    0.87890    0.76170    1.000
    C1239    C        0.50000    0.82490    0.77320    1.000
    C1240    C        0.50000    0.79630    0.77830    1.000
    C1241    C        0.50000    0.77320    0.78560    1.000
    C1242    C        0.50000    0.74810    0.79370    1.000
    O262     O        0.50000    0.03968    0.27784    1.000
    O263     O        0.50000    0.03219    0.22732    1.000
    O264     O        0.50000    0.54340    0.48220    1.000
    C1243    C        0.50000    0.09070    0.24710    1.000
    C1244    C        0.50000    0.12110    0.23830    1.000
    C1245    C        0.50000    0.17510    0.22680    1.000
    C1246    C        0.50000    0.20370    0.22170    1.000
    C1247    C        0.50000    0.22680    0.21440    1.000
    C1248    C        0.50000    0.25190    0.20630    1.000
    C1249    C        0.00000    0.71620    0.14760    1.000
    C1250    C        0.00000    0.77570    0.12910    1.000
    C1251    C        0.00000    0.80190    0.11510    1.000
    C1252    C        0.00000    0.82090    0.10000    1.000
    C1253    C        0.00000    0.84710    0.08570    1.000
    C1254    C        0.00000    0.89950    0.06430    1.000
    C1255    C        0.00000    0.92740    0.05320    1.000
    C1256    C        0.00000    0.69320    0.18860    1.000
    B1       B        0.00000    0.68730    0.15570    1.000
    C1257    C        0.00000    0.28380    0.14760    1.000
    C1258    C        0.00000    0.22430    0.12910    1.000
    C1259    C        0.00000    0.19810    0.11510    1.000
    C1260    C        0.00000    0.17910    0.10000    1.000
    C1261    C        0.00000    0.15290    0.08570    1.000
    C1262    C        0.00000    0.10050    0.06430    1.000
    C1263    C        0.00000    0.07260    0.05320    1.000
    C1264    C        0.00000    0.30680    0.18860    1.000
    B2       B        0.00000    0.31270    0.15570    1.000
    C1265    C        0.00000    0.71620    0.85240    1.000
    C1266    C        0.00000    0.77570    0.87090    1.000
    C1267    C        0.00000    0.80190    0.88490    1.000
    C1268    C        0.00000    0.82090    0.90000    1.000
    C1269    C        0.00000    0.84710    0.91430    1.000
    C1270    C        0.00000    0.89950    0.93570    1.000
    C1271    C        0.00000    0.92740    0.94680    1.000
    C1272    C        0.00000    0.69320    0.81140    1.000
    B3       B        0.00000    0.68730    0.84430    1.000
    C1273    C        0.00000    0.28380    0.85240    1.000
    C1274    C        0.00000    0.22430    0.87090    1.000
    C1275    C        0.00000    0.19810    0.88490    1.000
    C1276    C        0.00000    0.17910    0.90000    1.000
    C1277    C        0.00000    0.15290    0.91430    1.000
    C1278    C        0.00000    0.10050    0.93570    1.000
    C1279    C        0.00000    0.07260    0.94680    1.000
    C1280    C        0.00000    0.30680    0.81140    1.000
    B4       B        0.00000    0.31270    0.84430    1.000
    C1281    C        0.14760    0.00000    0.71620    1.000
    C1282    C        0.12910    0.00000    0.77570    1.000
    C1283    C        0.11510    0.00000    0.80190    1.000
    C1284    C        0.10000    0.00000    0.82090    1.000
    C1285    C        0.08570    0.00000    0.84710    1.000
    C1286    C        0.06430    0.00000    0.89950    1.000
    C1287    C        0.05320    0.00000    0.92740    1.000
    C1288    C        0.18860    0.00000    0.69320    1.000
    B5       B        0.15570    0.00000    0.68730    1.000
    C1289    C        0.14760    0.00000    0.28380    1.000
    C1290    C        0.12910    0.00000    0.22430    1.000
    C1291    C        0.11510    0.00000    0.19810    1.000
    C1292    C        0.10000    0.00000    0.17910    1.000
    C1293    C        0.08570    0.00000    0.15290    1.000
    C1294    C        0.06430    0.00000    0.10050    1.000
    C1295    C        0.05320    0.00000    0.07260    1.000
    C1296    C        0.18860    0.00000    0.30680    1.000
    B6       B        0.15570    0.00000    0.31270    1.000
    C1297    C        0.85240    0.00000    0.71620    1.000
    C1298    C        0.87090    0.00000    0.77570    1.000
    C1299    C        0.88490    0.00000    0.80190    1.000
    C1300    C        0.90000    0.00000    0.82090    1.000
    C1301    C        0.91430    0.00000    0.84710    1.000
    C1302    C        0.93570    0.00000    0.89950    1.000
    C1303    C        0.94680    0.00000    0.92740    1.000
    C1304    C        0.81140    0.00000    0.69320    1.000
    B7       B        0.84430    0.00000    0.68730    1.000
    C1305    C        0.85240    0.00000    0.28380    1.000
    C1306    C        0.87090    0.00000    0.22430    1.000
    C1307    C        0.88490    0.00000    0.19810    1.000
    C1308    C        0.90000    0.00000    0.17910    1.000
    C1309    C        0.91430    0.00000    0.15290    1.000
    C1310    C        0.93570    0.00000    0.10050    1.000
    C1311    C        0.94680    0.00000    0.07260    1.000
    C1312    C        0.81140    0.00000    0.30680    1.000
    B8       B        0.84430    0.00000    0.31270    1.000
    C1313    C        0.71620    0.14760    0.00000    1.000
    C1314    C        0.77570    0.12910    0.00000    1.000
    C1315    C        0.80190    0.11510    0.00000    1.000
    C1316    C        0.82090    0.10000    0.00000    1.000
    C1317    C        0.84710    0.08570    0.00000    1.000
    C1318    C        0.89950    0.06430    0.00000    1.000
    C1319    C        0.92740    0.05320    0.00000    1.000
    C1320    C        0.69320    0.18860    0.00000    1.000
    B9       B        0.68730    0.15570    0.00000    1.000
    C1321    C        0.28380    0.14760    0.00000    1.000
    C1322    C        0.22430    0.12910    0.00000    1.000
    C1323    C        0.19810    0.11510    0.00000    1.000
    C1324    C        0.17910    0.10000    0.00000    1.000
    C1325    C        0.15290    0.08570    0.00000    1.000
    C1326    C        0.10050    0.06430    0.00000    1.000
    C1327    C        0.07260    0.05320    0.00000    1.000
    C1328    C        0.30680    0.18860    0.00000    1.000
    B10      B        0.31270    0.15570    0.00000    1.000
    C1329    C        0.71620    0.85240    0.00000    1.000
    C1330    C        0.77570    0.87090    0.00000    1.000
    C1331    C        0.80190    0.88490    0.00000    1.000
    C1332    C        0.82090    0.90000    0.00000    1.000
    C1333    C        0.84710    0.91430    0.00000    1.000
    C1334    C        0.89950    0.93570    0.00000    1.000
    C1335    C        0.92740    0.94680    0.00000    1.000
    C1336    C        0.69320    0.81140    0.00000    1.000
    B11      B        0.68730    0.84430    0.00000    1.000
    C1337    C        0.28380    0.85240    0.00000    1.000
    C1338    C        0.22430    0.87090    0.00000    1.000
    C1339    C        0.19810    0.88490    0.00000    1.000
    C1340    C        0.17910    0.90000    0.00000    1.000
    C1341    C        0.15290    0.91430    0.00000    1.000
    C1342    C        0.10050    0.93570    0.00000    1.000
    C1343    C        0.07260    0.94680    0.00000    1.000
    C1344    C        0.30680    0.81140    0.00000    1.000
    B12      B        0.31270    0.84430    0.00000    1.000
    C1345    C        0.21620    0.50000    0.35240    1.000
    C1346    C        0.27570    0.50000    0.37090    1.000
    C1347    C        0.30190    0.50000    0.38490    1.000
    C1348    C        0.32090    0.50000    0.40000    1.000
    C1349    C        0.34710    0.50000    0.41430    1.000
    C1350    C        0.39950    0.50000    0.43570    1.000
    C1351    C        0.42740    0.50000    0.44680    1.000
    C1352    C        0.19320    0.50000    0.31140    1.000
    B13      B        0.18730    0.50000    0.34430    1.000
    C1353    C        0.78380    0.50000    0.35240    1.000
    C1354    C        0.72430    0.50000    0.37090    1.000
    C1355    C        0.69810    0.50000    0.38490    1.000
    C1356    C        0.67910    0.50000    0.40000    1.000
    C1357    C        0.65290    0.50000    0.41430    1.000
    C1358    C        0.60050    0.50000    0.43570    1.000
    C1359    C        0.57260    0.50000    0.44680    1.000
    C1360    C        0.80680    0.50000    0.31140    1.000
    B14      B        0.81270    0.50000    0.34430    1.000
    C1361    C        0.21620    0.50000    0.64760    1.000
    C1362    C        0.27570    0.50000    0.62910    1.000
    C1363    C        0.30190    0.50000    0.61510    1.000
    C1364    C        0.32090    0.50000    0.60000    1.000
    C1365    C        0.34710    0.50000    0.58570    1.000
    C1366    C        0.39950    0.50000    0.56430    1.000
    C1367    C        0.42740    0.50000    0.55320    1.000
    C1368    C        0.19320    0.50000    0.68860    1.000
    B15      B        0.18730    0.50000    0.65570    1.000
    C1369    C        0.78380    0.50000    0.64760    1.000
    C1370    C        0.72430    0.50000    0.62910    1.000
    C1371    C        0.69810    0.50000    0.61510    1.000
    C1372    C        0.67910    0.50000    0.60000    1.000
    C1373    C        0.65290    0.50000    0.58570    1.000
    C1374    C        0.60050    0.50000    0.56430    1.000
    C1375    C        0.57260    0.50000    0.55320    1.000
    C1376    C        0.80680    0.50000    0.68860    1.000
    B16      B        0.81270    0.50000    0.65570    1.000
    C1377    C        0.50000    0.64760    0.78380    1.000
    C1378    C        0.50000    0.62910    0.72430    1.000
    C1379    C        0.50000    0.61510    0.69810    1.000
    C1380    C        0.50000    0.60000    0.67910    1.000
    C1381    C        0.50000    0.58570    0.65290    1.000
    C1382    C        0.50000    0.56430    0.60050    1.000
    C1383    C        0.50000    0.55320    0.57260    1.000
    C1384    C        0.50000    0.68860    0.80680    1.000
    B17      B        0.50000    0.65570    0.81270    1.000
    C1385    C        0.50000    0.64760    0.21620    1.000
    C1386    C        0.50000    0.62910    0.27570    1.000
    C1387    C        0.50000    0.61510    0.30190    1.000
    C1388    C        0.50000    0.60000    0.32090    1.000
    C1389    C        0.50000    0.58570    0.34710    1.000
    C1390    C        0.50000    0.56430    0.39950    1.000
    C1391    C        0.50000    0.55320    0.42740    1.000
    C1392    C        0.50000    0.68860    0.19320    1.000
    B18      B        0.50000    0.65570    0.18730    1.000
    C1393    C        0.50000    0.35240    0.78380    1.000
    C1394    C        0.50000    0.37090    0.72430    1.000
    C1395    C        0.50000    0.38490    0.69810    1.000
    C1396    C        0.50000    0.40000    0.67910    1.000
    C1397    C        0.50000    0.41430    0.65290    1.000
    C1398    C        0.50000    0.43570    0.60050    1.000
    C1399    C        0.50000    0.44680    0.57260    1.000
    C1400    C        0.50000    0.31140    0.80680    1.000
    B19      B        0.50000    0.34430    0.81270    1.000
    C1401    C        0.50000    0.35240    0.21620    1.000
    C1402    C        0.50000    0.37090    0.27570    1.000
    C1403    C        0.50000    0.38490    0.30190    1.000
    C1404    C        0.50000    0.40000    0.32090    1.000
    C1405    C        0.50000    0.41430    0.34710    1.000
    C1406    C        0.50000    0.43570    0.39950    1.000
    C1407    C        0.50000    0.44680    0.42740    1.000
    C1408    C        0.50000    0.31140    0.19320    1.000
    B20      B        0.50000    0.34430    0.18730    1.000
    C1409    C        0.64760    0.21620    0.50000    1.000
    C1410    C        0.62910    0.27570    0.50000    1.000
    C1411    C        0.61510    0.30190    0.50000    1.000
    C1412    C        0.60000    0.32090    0.50000    1.000
    C1413    C        0.58570    0.34710    0.50000    1.000
    C1414    C        0.56430    0.39950    0.50000    1.000
    C1415    C        0.55320    0.42740    0.50000    1.000
    C1416    C        0.68860    0.19320    0.50000    1.000
    B21      B        0.65570    0.18730    0.50000    1.000
    C1417    C        0.64760    0.78380    0.50000    1.000
    C1418    C        0.62910    0.72430    0.50000    1.000
    C1419    C        0.61510    0.69810    0.50000    1.000
    C1420    C        0.60000    0.67910    0.50000    1.000
    C1421    C        0.58570    0.65290    0.50000    1.000
    C1422    C        0.56430    0.60050    0.50000    1.000
    C1423    C        0.55320    0.57260    0.50000    1.000
    C1424    C        0.68860    0.80680    0.50000    1.000
    B22      B        0.65570    0.81270    0.50000    1.000
    C1425    C        0.35240    0.21620    0.50000    1.000
    C1426    C        0.37090    0.27570    0.50000    1.000
    C1427    C        0.38490    0.30190    0.50000    1.000
    C1428    C        0.40000    0.32090    0.50000    1.000
    C1429    C        0.41430    0.34710    0.50000    1.000
    C1430    C        0.43570    0.39950    0.50000    1.000
    C1431    C        0.44680    0.42740    0.50000    1.000
    C1432    C        0.31140    0.19320    0.50000    1.000
    B23      B        0.34430    0.18730    0.50000    1.000
    C1433    C        0.35240    0.78380    0.50000    1.000
    C1434    C        0.37090    0.72430    0.50000    1.000
    C1435    C        0.38490    0.69810    0.50000    1.000
    C1436    C        0.40000    0.67910    0.50000    1.000
    C1437    C        0.41430    0.65290    0.50000    1.000
    C1438    C        0.43570    0.60050    0.50000    1.000
    C1439    C        0.44680    0.57260    0.50000    1.000
    C1440    C        0.31140    0.80680    0.50000    1.000
    B24      B        0.34430    0.81270    0.50000    1.000
