# CIF file generated by openbabel 3.1.0, see https://openbabel.org
data_I
_chemical_name_common 'image0'
_cell_length_a 13.762
_cell_length_b 9.563
_cell_length_c 9.883
_cell_angle_alpha 90
_cell_angle_beta 101.074
_cell_angle_gamma 90
_space_group_name_H-M_alt 'P 1'
_space_group_name_Hall 'P 1'
loop_
    _symmetry_equiv_pos_as_xyz
    x,y,z
loop_
    _atom_site_label
    _atom_site_type_symbol
    _atom_site_fract_x
    _atom_site_fract_y
    _atom_site_fract_z
    _atom_site_occupancy
    Zn1      Zn       0.59568    0.06824    0.90085    1.000
    N1       N        0.55861    0.21030    0.75140    1.000
    O1       O        0.72691    0.98640    0.90170    1.000
    O2       O        0.77134    0.19380    0.98370    1.000
    N2       N        0.55982    0.34630    0.57050    1.000
    C1       C        0.93370    0.93690    0.06920    1.000
    H1       H        0.88930    0.89350    0.11570    1.000
    N3       N        0.49243    0.39940    0.64340    1.000
    C2       C        0.79120    0.07390    0.94710    1.000
    C3       C        0.03380    0.90480    0.10490    1.000
    C4       C        0.89850    0.03250    0.96530    1.000
    O3       O        0.15600    0.82740    0.28860    1.000
    H2       H        0.16920    0.77210    0.35300    1.000
    O4       O        0.00880    0.72530    0.26110    1.000
    C5       C        0.59690    0.23330    0.63810    1.000
    H3       H        0.64410    0.17610    0.61050    1.000
    C6       C        0.49430    0.31640    0.74870    1.000
    H4       H        0.45520    0.32930    0.81480    1.000
    C7       C        0.06440    0.80790    0.22440    1.000
    Zn2      Zn       0.40432    0.56824    0.59915    1.000
    N4       N        0.44139    0.71030    0.74860    1.000
    O5       O        0.27309    0.48640    0.59830    1.000
    O6       O        0.22866    0.69380    0.51630    1.000
    N5       N        0.44018    0.84630    0.92950    1.000
    C8       C        0.06630    0.43690    0.43080    1.000
    H5       H        0.11070    0.39350    0.38430    1.000
    N6       N        0.50757    0.89940    0.85660    1.000
    C9       C        0.20880    0.57390    0.55290    1.000
    C10      C        0.96620    0.40480    0.39510    1.000
    C11      C        0.10150    0.53250    0.53470    1.000
    O7       O        0.84400    0.32740    0.21140    1.000
    H6       H        0.83080    0.27210    0.14700    1.000
    O8       O        0.99120    0.22530    0.23890    1.000
    C12      C        0.40310    0.73330    0.86190    1.000
    H7       H        0.35590    0.67610    0.88950    1.000
    C13      C        0.50570    0.81640    0.75130    1.000
    H8       H        0.54480    0.82930    0.68520    1.000
    C14      C        0.93560    0.30790    0.27560    1.000
    Zn3      Zn       0.40432    0.93176    0.09915    1.000
    N7       N        0.44139    0.78970    0.24860    1.000
    O9       O        0.27309    0.01360    0.09830    1.000
    O10      O        0.22866    0.80620    0.01630    1.000
    N8       N        0.44018    0.65370    0.42950    1.000
    C15      C        0.06630    0.06310    0.93080    1.000
    H9       H        0.11070    0.10650    0.88430    1.000
    N9       N        0.50757    0.60060    0.35660    1.000
    C16      C        0.20880    0.92610    0.05290    1.000
    C17      C        0.96620    0.09520    0.89510    1.000
    C18      C        0.10150    0.96750    0.03470    1.000
    O11      O        0.84400    0.17260    0.71140    1.000
    H10      H        0.83080    0.22790    0.64700    1.000
    O12      O        0.99120    0.27470    0.73890    1.000
    C19      C        0.40310    0.76670    0.36190    1.000
    H11      H        0.35590    0.82390    0.38950    1.000
    C20      C        0.50570    0.68360    0.25130    1.000
    H12      H        0.54480    0.67070    0.18520    1.000
    C21      C        0.93560    0.19210    0.77560    1.000
    Zn4      Zn       0.59568    0.43176    0.40085    1.000
    N10      N        0.55861    0.28970    0.25140    1.000
    O13      O        0.72691    0.51360    0.40170    1.000
    O14      O        0.77134    0.30620    0.48370    1.000
    N11      N        0.55982    0.15370    0.07050    1.000
    C22      C        0.93370    0.56310    0.56920    1.000
    H13      H        0.88930    0.60650    0.61570    1.000
    N12      N        0.49243    0.10060    0.14340    1.000
    C23      C        0.79120    0.42610    0.44710    1.000
    C24      C        0.03380    0.59520    0.60490    1.000
    C25      C        0.89850    0.46750    0.46530    1.000
    O15      O        0.15600    0.67260    0.78860    1.000
    H14      H        0.16920    0.72790    0.85300    1.000
    O16      O        0.00880    0.77470    0.76110    1.000
    C26      C        0.59690    0.26670    0.13810    1.000
    H15      H        0.64410    0.32390    0.11050    1.000
    C27      C        0.49430    0.18360    0.24870    1.000
    H16      H        0.45520    0.17070    0.31480    1.000
    C28      C        0.06440    0.69210    0.72440    1.000
