# CIF file generated by openbabel 3.1.0, see https://openbabel.org
data_I
_chemical_name_common 'JUTCUW_clean'
_cell_length_a 8.9364
_cell_length_b 8.9364
_cell_length_c 8.9364
_cell_angle_alpha 60
_cell_angle_beta 60
_cell_angle_gamma 60
_space_group_name_H-M_alt 'P 1'
_space_group_name_Hall 'P 1'
loop_
    _symmetry_equiv_pos_as_xyz
    x,y,z
loop_
    _atom_site_label
    _atom_site_type_symbol
    _atom_site_fract_x
    _atom_site_fract_y
    _atom_site_fract_z
    _atom_site_occupancy
    Cd1      Cd       0.87500    0.37500    0.37500    1.000
    Cd2      Cd       0.12500    0.62500    0.62500    1.000
    C1       C        0.58100    0.47300    0.47300    1.000
    C2       C        0.97300    0.08100    0.47300    1.000
    C3       N        0.97300    0.47300    0.08100    1.000
    C4       N        0.97300    0.47300    0.47300    1.000
    C5       N        0.02700    0.91900    0.52700    1.000
    C6       N        0.41900    0.52700    0.52700    1.000
    C7       C        0.02700    0.52700    0.91900    1.000
    C8       C        0.02700    0.52700    0.52700    1.000
