# CIF file generated by openbabel 3.1.0, see https://openbabel.org
data_I
_chemical_name_common 'image0'
_cell_length_a 21.9777
_cell_length_b 16.6111
_cell_length_c 25.6344
_cell_angle_alpha 90
_cell_angle_beta 115.351
_cell_angle_gamma 90
_space_group_name_H-M_alt 'P 1'
_space_group_name_Hall 'P 1'
loop_
    _symmetry_equiv_pos_as_xyz
    x,y,z
loop_
    _atom_site_label
    _atom_site_type_symbol
    _atom_site_fract_x
    _atom_site_fract_y
    _atom_site_fract_z
    _atom_site_occupancy
    Ag1      Ag       0.77386    0.20904    0.36821    1.000
    Ag2      Ag       0.29517    0.50170    0.86765    1.000
    C1       C        0.15340    0.71990    0.00110    1.000
    C2       C        0.92300    0.90020    0.89250    1.000
    H1       H        0.90330    0.90500    0.85250    1.000
    C3       C        0.12810    0.50710    0.50240    1.000
    C4       C        0.12790    0.56170    0.41110    1.000
    H2       H        0.08540    0.53970    0.38990    1.000
    C5       C        0.90310    0.31690    0.38910    1.000
    H3       H        0.88470    0.31110    0.34910    1.000
    C6       C        0.07530    0.80140    0.00700    1.000
    C7       C        0.98230    0.88750    0.00950    1.000
    H4       H        0.00160    0.88480    0.04950    1.000
    C8       C        0.15980    0.55270    0.47020    1.000
    C9       C        0.24310    0.63370    0.99630    1.000
    H5       H        0.26370    0.63320    0.03650    1.000
    C10      C        0.22290    0.58610    0.49930    1.000
    H6       H        0.24570    0.58130    0.53920    1.000
    C11      C        0.15810    0.48570    0.65140    1.000
    C12      C        0.12760    0.47600    0.58780    1.000
    C13      C        0.27160    0.59280    0.96530    1.000
    H7       H        0.31180    0.56540    0.98560    1.000
    C14      C        0.96090    0.36130    0.41550    1.000
    H8       H        0.98120    0.38390    0.39380    1.000
    C15      C        0.18380    0.67550    0.96681    1.000
    C16      C        0.19040    0.74260    0.15200    1.000
    C17      C        0.95720    0.33410    0.50540    1.000
    H9       H        0.97500    0.33750    0.54540    1.000
    C18      C        0.25270    0.70740    0.18100    1.000
    H10      H        0.27670    0.68970    0.16080    1.000
    C19      C        0.25140    0.62660    0.46880    1.000
    H11      H        0.29370    0.64930    0.48910    1.000
    C20      C        0.05010    0.42290    0.50540    1.000
    C21      C        0.98240    0.85770    0.91860    1.000
    H12      H        0.00190    0.83440    0.89640    1.000
    C22      C        0.15840    0.75220    0.08800    1.000
    C23      C        0.27950    0.69850    0.24040    1.000
    H13      H        0.32150    0.67440    0.25950    1.000
    C24      C        0.18670    0.75750    0.24280    1.000
    H14      H        0.16380    0.77540    0.26380    1.000
    C25      C        0.15630    0.76750    0.18370    1.000
    H15      H        0.11380    0.79070    0.16550    1.000
    C26      C        0.16050    0.60430    0.38400    1.000
    H16      H        0.13830    0.61170    0.34430    1.000
    C27      C        0.21180    0.53730    0.67800    1.000
    H17      H        0.22780    0.56770    0.65610    1.000
    C28      C        0.89900    0.29100    0.47460    1.000
    H18      H        0.87760    0.26730    0.49510    1.000
    C29      C        0.24130    0.54340    0.73720    1.000
    H19      H        0.27720    0.57880    0.75450    1.000
    C30      C        0.01270    0.85000    0.97790    1.000
    C31      C        0.98900    0.37240    0.47510    1.000
    C32      C        0.15540    0.67490    0.90740    1.000
    H20      H        0.11610    0.70350    0.88620    1.000
    C33      C        0.92220    0.92910    0.97940    1.000
    H21      H        0.90210    0.95410    0.00050    1.000
    C34      C        0.13370    0.44520    0.68530    1.000
    H22      H        0.09560    0.41300    0.66870    1.000
    C35      C        0.16720    0.45360    0.74430    1.000
    H23      H        0.15110    0.42460    0.76680    1.000
    C36      C        0.18630    0.63100    0.87980    1.000
    H24      H        0.16570    0.62930    0.83970    1.000
    N1       N        0.87162    0.28130    0.41768    1.000
    N2       N        0.22200    0.63510    0.41183    1.000
    N3       N        0.22080    0.50030    0.77132    1.000
    N4       N        0.07450    0.46070    0.47287    1.000
    N5       N        0.15623    0.51750    0.55929    1.000
    N6       N        0.07486    0.42710    0.56287    1.000
    N7       N        0.24420    0.59050    0.90745    1.000
    N8       N        0.24680    0.72340    0.27139    1.000
    N9       N        0.89220    0.93500    0.92209    1.000
    N10      N        0.09769    0.76070    0.97311    1.000
    N11      N        0.18629    0.71260    0.05876    1.000
    N12      N        0.10390    0.79890    0.06457    1.000
    Ag3      Ag       0.27386    0.70904    0.36821    1.000
    Ag4      Ag       0.79517    0.00170    0.86765    1.000
    C37      C        0.65340    0.21990    0.00110    1.000
    C38      C        0.42300    0.40020    0.89250    1.000
    H25      H        0.40330    0.40500    0.85250    1.000
    C39      C        0.62810    0.00710    0.50240    1.000
    C40      C        0.62790    0.06170    0.41110    1.000
    H26      H        0.58540    0.03970    0.38990    1.000
    C41      C        0.40310    0.81690    0.38910    1.000
    H27      H        0.38470    0.81110    0.34910    1.000
    C42      C        0.57530    0.30140    0.00700    1.000
    C43      C        0.48230    0.38750    0.00950    1.000
    H28      H        0.50160    0.38480    0.04950    1.000
    C44      C        0.65980    0.05270    0.47020    1.000
    C45      C        0.74310    0.13370    0.99630    1.000
    H29      H        0.76370    0.13320    0.03650    1.000
    C46      C        0.72290    0.08610    0.49930    1.000
    H30      H        0.74570    0.08130    0.53920    1.000
    C47      C        0.65810    0.98570    0.65140    1.000
    C48      C        0.62760    0.97600    0.58780    1.000
    C49      C        0.77160    0.09280    0.96530    1.000
    H31      H        0.81180    0.06540    0.98560    1.000
    C50      C        0.46090    0.86130    0.41550    1.000
    H32      H        0.48120    0.88390    0.39380    1.000
    C51      C        0.68380    0.17550    0.96681    1.000
    C52      C        0.69040    0.24260    0.15200    1.000
    C53      C        0.45720    0.83410    0.50540    1.000
    H33      H        0.47500    0.83750    0.54540    1.000
    C54      C        0.75270    0.20740    0.18100    1.000
    H34      H        0.77670    0.18970    0.16080    1.000
    C55      C        0.75140    0.12660    0.46880    1.000
    H35      H        0.79370    0.14930    0.48910    1.000
    C56      C        0.55010    0.92290    0.50540    1.000
    C57      C        0.48240    0.35770    0.91860    1.000
    H36      H        0.50190    0.33440    0.89640    1.000
    C58      C        0.65840    0.25220    0.08800    1.000
    C59      C        0.77950    0.19850    0.24040    1.000
    H37      H        0.82150    0.17440    0.25950    1.000
    C60      C        0.68670    0.25750    0.24280    1.000
    H38      H        0.66380    0.27540    0.26380    1.000
    C61      C        0.65630    0.26750    0.18370    1.000
    H39      H        0.61380    0.29070    0.16550    1.000
    C62      C        0.66050    0.10430    0.38400    1.000
    H40      H        0.63830    0.11170    0.34430    1.000
    C63      C        0.71180    0.03730    0.67800    1.000
    H41      H        0.72780    0.06770    0.65610    1.000
    C64      C        0.39900    0.79100    0.47460    1.000
    H42      H        0.37760    0.76730    0.49510    1.000
    C65      C        0.74130    0.04340    0.73720    1.000
    H43      H        0.77720    0.07880    0.75450    1.000
    C66      C        0.51270    0.35000    0.97790    1.000
    C67      C        0.48900    0.87240    0.47510    1.000
    C68      C        0.65540    0.17490    0.90740    1.000
    H44      H        0.61610    0.20350    0.88620    1.000
    C69      C        0.42220    0.42910    0.97940    1.000
    H45      H        0.40210    0.45410    0.00050    1.000
    C70      C        0.63370    0.94520    0.68530    1.000
    H46      H        0.59560    0.91300    0.66870    1.000
    C71      C        0.66720    0.95360    0.74430    1.000
    H47      H        0.65110    0.92460    0.76680    1.000
    C72      C        0.68630    0.13100    0.87980    1.000
    H48      H        0.66570    0.12930    0.83970    1.000
    N13      N        0.37162    0.78130    0.41768    1.000
    N14      N        0.72200    0.13510    0.41183    1.000
    N15      N        0.72080    0.00030    0.77132    1.000
    N16      N        0.57450    0.96070    0.47287    1.000
    N17      N        0.65623    0.01750    0.55929    1.000
    N18      N        0.57486    0.92710    0.56287    1.000
    N19      N        0.74420    0.09050    0.90745    1.000
    N20      N        0.74680    0.22340    0.27139    1.000
    N21      N        0.39220    0.43500    0.92209    1.000
    N22      N        0.59769    0.26070    0.97311    1.000
    N23      N        0.68629    0.21260    0.05876    1.000
    N24      N        0.60390    0.29890    0.06457    1.000
    Ag5      Ag       0.22614    0.20904    0.13179    1.000
    Ag6      Ag       0.70483    0.50170    0.63235    1.000
    C73      C        0.84660    0.71990    0.49890    1.000
    C74      C        0.07700    0.90020    0.60750    1.000
    H49      H        0.09670    0.90500    0.64750    1.000
    C75      C        0.87190    0.50710    0.99760    1.000
    C76      C        0.87210    0.56170    0.08890    1.000
    H50      H        0.91460    0.53970    0.11010    1.000
    C77      C        0.09690    0.31690    0.11090    1.000
    H51      H        0.11530    0.31110    0.15090    1.000
    C78      C        0.92470    0.80140    0.49300    1.000
    C79      C        0.01770    0.88750    0.49050    1.000
    H52      H        0.99840    0.88480    0.45050    1.000
    C80      C        0.84020    0.55270    0.02980    1.000
    C81      C        0.75690    0.63370    0.50370    1.000
    H53      H        0.73630    0.63320    0.46350    1.000
    C82      C        0.77710    0.58610    0.00070    1.000
    H54      H        0.75430    0.58130    0.96080    1.000
    C83      C        0.84190    0.48570    0.84860    1.000
    C84      C        0.87240    0.47600    0.91220    1.000
    C85      C        0.72840    0.59280    0.53470    1.000
    H55      H        0.68820    0.56540    0.51440    1.000
    C86      C        0.03910    0.36130    0.08450    1.000
    H56      H        0.01880    0.38390    0.10620    1.000
    C87      C        0.81620    0.67550    0.53319    1.000
    C88      C        0.80960    0.74260    0.34800    1.000
    C89      C        0.04280    0.33410    0.99460    1.000
    H57      H        0.02500    0.33750    0.95460    1.000
    C90      C        0.74730    0.70740    0.31900    1.000
    H58      H        0.72330    0.68970    0.33920    1.000
    C91      C        0.74860    0.62660    0.03120    1.000
    H59      H        0.70630    0.64930    0.01090    1.000
    C92      C        0.94990    0.42290    0.99460    1.000
    C93      C        0.01760    0.85770    0.58140    1.000
    H60      H        0.99810    0.83440    0.60360    1.000
    C94      C        0.84160    0.75220    0.41200    1.000
    C95      C        0.72050    0.69850    0.25960    1.000
    H61      H        0.67850    0.67440    0.24050    1.000
    C96      C        0.81330    0.75750    0.25720    1.000
    H62      H        0.83620    0.77540    0.23620    1.000
    C97      C        0.84370    0.76750    0.31630    1.000
    H63      H        0.88620    0.79070    0.33450    1.000
    C98      C        0.83950    0.60430    0.11600    1.000
    H64      H        0.86170    0.61170    0.15570    1.000
    C99      C        0.78820    0.53730    0.82200    1.000
    H65      H        0.77220    0.56770    0.84390    1.000
    C100     C        0.10100    0.29100    0.02540    1.000
    H66      H        0.12240    0.26730    0.00490    1.000
    C101     C        0.75870    0.54340    0.76280    1.000
    H67      H        0.72280    0.57880    0.74550    1.000
    C102     C        0.98730    0.85000    0.52210    1.000
    C103     C        0.01100    0.37240    0.02490    1.000
    C104     C        0.84460    0.67490    0.59260    1.000
    H68      H        0.88390    0.70350    0.61380    1.000
    C105     C        0.07780    0.92910    0.52060    1.000
    H69      H        0.09790    0.95410    0.49950    1.000
    C106     C        0.86630    0.44520    0.81470    1.000
    H70      H        0.90440    0.41300    0.83130    1.000
    C107     C        0.83280    0.45360    0.75570    1.000
    H71      H        0.84890    0.42460    0.73320    1.000
    C108     C        0.81370    0.63100    0.62020    1.000
    H72      H        0.83430    0.62930    0.66030    1.000
    N25      N        0.12838    0.28130    0.08232    1.000
    N26      N        0.77800    0.63510    0.08817    1.000
    N27      N        0.77920    0.50030    0.72868    1.000
    N28      N        0.92550    0.46070    0.02713    1.000
    N29      N        0.84377    0.51750    0.94071    1.000
    N30      N        0.92514    0.42710    0.93713    1.000
    N31      N        0.75580    0.59050    0.59255    1.000
    N32      N        0.75320    0.72340    0.22861    1.000
    N33      N        0.10780    0.93500    0.57791    1.000
    N34      N        0.90231    0.76070    0.52689    1.000
    N35      N        0.81371    0.71260    0.44124    1.000
    N36      N        0.89610    0.79890    0.43543    1.000
    Ag7      Ag       0.72614    0.70904    0.13179    1.000
    Ag8      Ag       0.20483    0.00170    0.63235    1.000
    C109     C        0.34660    0.21990    0.49890    1.000
    C110     C        0.57700    0.40020    0.60750    1.000
    H73      H        0.59670    0.40500    0.64750    1.000
    C111     C        0.37190    0.00710    0.99760    1.000
    C112     C        0.37210    0.06170    0.08890    1.000
    H74      H        0.41460    0.03970    0.11010    1.000
    C113     C        0.59690    0.81690    0.11090    1.000
    H75      H        0.61530    0.81110    0.15090    1.000
    C114     C        0.42470    0.30140    0.49300    1.000
    C115     C        0.51770    0.38750    0.49050    1.000
    H76      H        0.49840    0.38480    0.45050    1.000
    C116     C        0.34020    0.05270    0.02980    1.000
    C117     C        0.25690    0.13370    0.50370    1.000
    H77      H        0.23630    0.13320    0.46350    1.000
    C118     C        0.27710    0.08610    0.00070    1.000
    H78      H        0.25430    0.08130    0.96080    1.000
    C119     C        0.34190    0.98570    0.84860    1.000
    C120     C        0.37240    0.97600    0.91220    1.000
    C121     C        0.22840    0.09280    0.53470    1.000
    H79      H        0.18820    0.06540    0.51440    1.000
    C122     C        0.53910    0.86130    0.08450    1.000
    H80      H        0.51880    0.88390    0.10620    1.000
    C123     C        0.31620    0.17550    0.53319    1.000
    C124     C        0.30960    0.24260    0.34800    1.000
    C125     C        0.54280    0.83410    0.99460    1.000
    H81      H        0.52500    0.83750    0.95460    1.000
    C126     C        0.24730    0.20740    0.31900    1.000
    H82      H        0.22330    0.18970    0.33920    1.000
    C127     C        0.24860    0.12660    0.03120    1.000
    H83      H        0.20630    0.14930    0.01090    1.000
    C128     C        0.44990    0.92290    0.99460    1.000
    C129     C        0.51760    0.35770    0.58140    1.000
    H84      H        0.49810    0.33440    0.60360    1.000
    C130     C        0.34160    0.25220    0.41200    1.000
    C131     C        0.22050    0.19850    0.25960    1.000
    H85      H        0.17850    0.17440    0.24050    1.000
    C132     C        0.31330    0.25750    0.25720    1.000
    H86      H        0.33620    0.27540    0.23620    1.000
    C133     C        0.34370    0.26750    0.31630    1.000
    H87      H        0.38620    0.29070    0.33450    1.000
    C134     C        0.33950    0.10430    0.11600    1.000
    H88      H        0.36170    0.11170    0.15570    1.000
    C135     C        0.28820    0.03730    0.82200    1.000
    H89      H        0.27220    0.06770    0.84390    1.000
    C136     C        0.60100    0.79100    0.02540    1.000
    H90      H        0.62240    0.76730    0.00490    1.000
    C137     C        0.25870    0.04340    0.76280    1.000
    H91      H        0.22280    0.07880    0.74550    1.000
    C138     C        0.48730    0.35000    0.52210    1.000
    C139     C        0.51100    0.87240    0.02490    1.000
    C140     C        0.34460    0.17490    0.59260    1.000
    H92      H        0.38390    0.20350    0.61380    1.000
    C141     C        0.57780    0.42910    0.52060    1.000
    H93      H        0.59790    0.45410    0.49950    1.000
    C142     C        0.36630    0.94520    0.81470    1.000
    H94      H        0.40440    0.91300    0.83130    1.000
    C143     C        0.33280    0.95360    0.75570    1.000
    H95      H        0.34890    0.92460    0.73320    1.000
    C144     C        0.31370    0.13100    0.62020    1.000
    H96      H        0.33430    0.12930    0.66030    1.000
    N37      N        0.62838    0.78130    0.08232    1.000
    N38      N        0.27800    0.13510    0.08817    1.000
    N39      N        0.27920    0.00030    0.72868    1.000
    N40      N        0.42550    0.96070    0.02713    1.000
    N41      N        0.34377    0.01750    0.94071    1.000
    N42      N        0.42514    0.92710    0.93713    1.000
    N43      N        0.25580    0.09050    0.59255    1.000
    N44      N        0.25320    0.22340    0.22861    1.000
    N45      N        0.60780    0.43500    0.57791    1.000
    N46      N        0.40231    0.26070    0.52689    1.000
    N47      N        0.31371    0.21260    0.44124    1.000
    N48      N        0.39610    0.29890    0.43543    1.000
    Ag9      Ag       0.22614    0.79096    0.63179    1.000
    Ag10     Ag       0.70483    0.49830    0.13235    1.000
    C145     C        0.84660    0.28010    0.99890    1.000
    C146     C        0.07700    0.09980    0.10750    1.000
    H97      H        0.09670    0.09500    0.14750    1.000
    C147     C        0.87190    0.49290    0.49760    1.000
    C148     C        0.87210    0.43830    0.58890    1.000
    H98      H        0.91460    0.46030    0.61010    1.000
    C149     C        0.09690    0.68310    0.61090    1.000
    H99      H        0.11530    0.68890    0.65090    1.000
    C150     C        0.92470    0.19860    0.99300    1.000
    C151     C        0.01770    0.11250    0.99050    1.000
    H100     H        0.99840    0.11520    0.95050    1.000
    C152     C        0.84020    0.44730    0.52980    1.000
    C153     C        0.75690    0.36630    0.00370    1.000
    H101     H        0.73630    0.36680    0.96350    1.000
    C154     C        0.77710    0.41390    0.50070    1.000
    H102     H        0.75430    0.41870    0.46080    1.000
    C155     C        0.84190    0.51430    0.34860    1.000
    C156     C        0.87240    0.52400    0.41220    1.000
    C157     C        0.72840    0.40720    0.03470    1.000
    H103     H        0.68820    0.43460    0.01440    1.000
    C158     C        0.03910    0.63870    0.58450    1.000
    H104     H        0.01880    0.61610    0.60620    1.000
    C159     C        0.81620    0.32450    0.03319    1.000
    C160     C        0.80960    0.25740    0.84800    1.000
    C161     C        0.04280    0.66590    0.49460    1.000
    H105     H        0.02500    0.66250    0.45460    1.000
    C162     C        0.74730    0.29260    0.81900    1.000
    H106     H        0.72330    0.31030    0.83920    1.000
    C163     C        0.74860    0.37340    0.53120    1.000
    H107     H        0.70630    0.35070    0.51090    1.000
    C164     C        0.94990    0.57710    0.49460    1.000
    C165     C        0.01760    0.14230    0.08140    1.000
    H108     H        0.99810    0.16560    0.10360    1.000
    C166     C        0.84160    0.24780    0.91200    1.000
    C167     C        0.72050    0.30150    0.75960    1.000
    H109     H        0.67850    0.32560    0.74050    1.000
    C168     C        0.81330    0.24250    0.75720    1.000
    H110     H        0.83620    0.22460    0.73620    1.000
    C169     C        0.84370    0.23250    0.81630    1.000
    H111     H        0.88620    0.20930    0.83450    1.000
    C170     C        0.83950    0.39570    0.61600    1.000
    H112     H        0.86170    0.38830    0.65570    1.000
    C171     C        0.78820    0.46270    0.32200    1.000
    H113     H        0.77220    0.43230    0.34390    1.000
    C172     C        0.10100    0.70900    0.52540    1.000
    H114     H        0.12240    0.73270    0.50490    1.000
    C173     C        0.75870    0.45660    0.26280    1.000
    H115     H        0.72280    0.42120    0.24550    1.000
    C174     C        0.98730    0.15000    0.02210    1.000
    C175     C        0.01100    0.62760    0.52490    1.000
    C176     C        0.84460    0.32510    0.09260    1.000
    H116     H        0.88390    0.29650    0.11380    1.000
    C177     C        0.07780    0.07090    0.02060    1.000
    H117     H        0.09790    0.04590    0.99950    1.000
    C178     C        0.86630    0.55480    0.31470    1.000
    H118     H        0.90440    0.58700    0.33130    1.000
    C179     C        0.83280    0.54640    0.25570    1.000
    H119     H        0.84890    0.57540    0.23320    1.000
    C180     C        0.81370    0.36900    0.12020    1.000
    H120     H        0.83430    0.37070    0.16030    1.000
    N49      N        0.12838    0.71870    0.58232    1.000
    N50      N        0.77800    0.36490    0.58817    1.000
    N51      N        0.77920    0.49970    0.22868    1.000
    N52      N        0.92550    0.53930    0.52713    1.000
    N53      N        0.84377    0.48250    0.44071    1.000
    N54      N        0.92514    0.57290    0.43713    1.000
    N55      N        0.75580    0.40950    0.09255    1.000
    N56      N        0.75320    0.27660    0.72861    1.000
    N57      N        0.10780    0.06500    0.07791    1.000
    N58      N        0.90231    0.23930    0.02689    1.000
    N59      N        0.81371    0.28740    0.94124    1.000
    N60      N        0.89610    0.20110    0.93543    1.000
    Ag11     Ag       0.72614    0.29096    0.63179    1.000
    Ag12     Ag       0.20483    0.99830    0.13235    1.000
    C181     C        0.34660    0.78010    0.99890    1.000
    C182     C        0.57700    0.59980    0.10750    1.000
    H121     H        0.59670    0.59500    0.14750    1.000
    C183     C        0.37190    0.99290    0.49760    1.000
    C184     C        0.37210    0.93830    0.58890    1.000
    H122     H        0.41460    0.96030    0.61010    1.000
    C185     C        0.59690    0.18310    0.61090    1.000
    H123     H        0.61530    0.18890    0.65090    1.000
    C186     C        0.42470    0.69860    0.99300    1.000
    C187     C        0.51770    0.61250    0.99050    1.000
    H124     H        0.49840    0.61520    0.95050    1.000
    C188     C        0.34020    0.94730    0.52980    1.000
    C189     C        0.25690    0.86630    0.00370    1.000
    H125     H        0.23630    0.86680    0.96350    1.000
    C190     C        0.27710    0.91390    0.50070    1.000
    H126     H        0.25430    0.91870    0.46080    1.000
    C191     C        0.34190    0.01430    0.34860    1.000
    C192     C        0.37240    0.02400    0.41220    1.000
    C193     C        0.22840    0.90720    0.03470    1.000
    H127     H        0.18820    0.93460    0.01440    1.000
    C194     C        0.53910    0.13870    0.58450    1.000
    H128     H        0.51880    0.11610    0.60620    1.000
    C195     C        0.31620    0.82450    0.03319    1.000
    C196     C        0.30960    0.75740    0.84800    1.000
    C197     C        0.54280    0.16590    0.49460    1.000
    H129     H        0.52500    0.16250    0.45460    1.000
    C198     C        0.24730    0.79260    0.81900    1.000
    H130     H        0.22330    0.81030    0.83920    1.000
    C199     C        0.24860    0.87340    0.53120    1.000
    H131     H        0.20630    0.85070    0.51090    1.000
    C200     C        0.44990    0.07710    0.49460    1.000
    C201     C        0.51760    0.64230    0.08140    1.000
    H132     H        0.49810    0.66560    0.10360    1.000
    C202     C        0.34160    0.74780    0.91200    1.000
    C203     C        0.22050    0.80150    0.75960    1.000
    H133     H        0.17850    0.82560    0.74050    1.000
    C204     C        0.31330    0.74250    0.75720    1.000
    H134     H        0.33620    0.72460    0.73620    1.000
    C205     C        0.34370    0.73250    0.81630    1.000
    H135     H        0.38620    0.70930    0.83450    1.000
    C206     C        0.33950    0.89570    0.61600    1.000
    H136     H        0.36170    0.88830    0.65570    1.000
    C207     C        0.28820    0.96270    0.32200    1.000
    H137     H        0.27220    0.93230    0.34390    1.000
    C208     C        0.60100    0.20900    0.52540    1.000
    H138     H        0.62240    0.23270    0.50490    1.000
    C209     C        0.25870    0.95660    0.26280    1.000
    H139     H        0.22280    0.92120    0.24550    1.000
    C210     C        0.48730    0.65000    0.02210    1.000
    C211     C        0.51100    0.12760    0.52490    1.000
    C212     C        0.34460    0.82510    0.09260    1.000
    H140     H        0.38390    0.79650    0.11380    1.000
    C213     C        0.57780    0.57090    0.02060    1.000
    H141     H        0.59790    0.54590    0.99950    1.000
    C214     C        0.36630    0.05480    0.31470    1.000
    H142     H        0.40440    0.08700    0.33130    1.000
    C215     C        0.33280    0.04640    0.25570    1.000
    H143     H        0.34890    0.07540    0.23320    1.000
    C216     C        0.31370    0.86900    0.12020    1.000
    H144     H        0.33430    0.87070    0.16030    1.000
    N61      N        0.62838    0.21870    0.58232    1.000
    N62      N        0.27800    0.86490    0.58817    1.000
    N63      N        0.27920    0.99970    0.22868    1.000
    N64      N        0.42550    0.03930    0.52713    1.000
    N65      N        0.34377    0.98250    0.44071    1.000
    N66      N        0.42514    0.07290    0.43713    1.000
    N67      N        0.25580    0.90950    0.09255    1.000
    N68      N        0.25320    0.77660    0.72861    1.000
    N69      N        0.60780    0.56500    0.07791    1.000
    N70      N        0.40231    0.73930    0.02689    1.000
    N71      N        0.31371    0.78740    0.94124    1.000
    N72      N        0.39610    0.70110    0.93543    1.000
    Ag13     Ag       0.77386    0.79096    0.86821    1.000
    Ag14     Ag       0.29517    0.49830    0.36765    1.000
    C217     C        0.15340    0.28010    0.50110    1.000
    C218     C        0.92300    0.09980    0.39250    1.000
    H145     H        0.90330    0.09500    0.35250    1.000
    C219     C        0.12810    0.49290    0.00240    1.000
    C220     C        0.12790    0.43830    0.91110    1.000
    H146     H        0.08540    0.46030    0.88990    1.000
    C221     C        0.90310    0.68310    0.88910    1.000
    H147     H        0.88470    0.68890    0.84910    1.000
    C222     C        0.07530    0.19860    0.50700    1.000
    C223     C        0.98230    0.11250    0.50950    1.000
    H148     H        0.00160    0.11520    0.54950    1.000
    C224     C        0.15980    0.44730    0.97020    1.000
    C225     C        0.24310    0.36630    0.49630    1.000
    H149     H        0.26370    0.36680    0.53650    1.000
    C226     C        0.22290    0.41390    0.99930    1.000
    H150     H        0.24570    0.41870    0.03920    1.000
    C227     C        0.15810    0.51430    0.15140    1.000
    C228     C        0.12760    0.52400    0.08780    1.000
    C229     C        0.27160    0.40720    0.46530    1.000
    H151     H        0.31180    0.43460    0.48560    1.000
    C230     C        0.96090    0.63870    0.91550    1.000
    H152     H        0.98120    0.61610    0.89380    1.000
    C231     C        0.18380    0.32450    0.46681    1.000
    C232     C        0.19040    0.25740    0.65200    1.000
    C233     C        0.95720    0.66590    0.00540    1.000
    H153     H        0.97500    0.66250    0.04540    1.000
    C234     C        0.25270    0.29260    0.68100    1.000
    H154     H        0.27670    0.31030    0.66080    1.000
    C235     C        0.25140    0.37340    0.96880    1.000
    H155     H        0.29370    0.35070    0.98910    1.000
    C236     C        0.05010    0.57710    0.00540    1.000
    C237     C        0.98240    0.14230    0.41860    1.000
    H156     H        0.00190    0.16560    0.39640    1.000
    C238     C        0.15840    0.24780    0.58800    1.000
    C239     C        0.27950    0.30150    0.74040    1.000
    H157     H        0.32150    0.32560    0.75950    1.000
    C240     C        0.18670    0.24250    0.74280    1.000
    H158     H        0.16380    0.22460    0.76380    1.000
    C241     C        0.15630    0.23250    0.68370    1.000
    H159     H        0.11380    0.20930    0.66550    1.000
    C242     C        0.16050    0.39570    0.88400    1.000
    H160     H        0.13830    0.38830    0.84430    1.000
    C243     C        0.21180    0.46270    0.17800    1.000
    H161     H        0.22780    0.43230    0.15610    1.000
    C244     C        0.89900    0.70900    0.97460    1.000
    H162     H        0.87760    0.73270    0.99510    1.000
    C245     C        0.24130    0.45660    0.23720    1.000
    H163     H        0.27720    0.42120    0.25450    1.000
    C246     C        0.01270    0.15000    0.47790    1.000
    C247     C        0.98900    0.62760    0.97510    1.000
    C248     C        0.15540    0.32510    0.40740    1.000
    H164     H        0.11610    0.29650    0.38620    1.000
    C249     C        0.92220    0.07090    0.47940    1.000
    H165     H        0.90210    0.04590    0.50050    1.000
    C250     C        0.13370    0.55480    0.18530    1.000
    H166     H        0.09560    0.58700    0.16870    1.000
    C251     C        0.16720    0.54640    0.24430    1.000
    H167     H        0.15110    0.57540    0.26680    1.000
    C252     C        0.18630    0.36900    0.37980    1.000
    H168     H        0.16570    0.37070    0.33970    1.000
    N73      N        0.87162    0.71870    0.91768    1.000
    N74      N        0.22200    0.36490    0.91183    1.000
    N75      N        0.22080    0.49970    0.27132    1.000
    N76      N        0.07450    0.53930    0.97287    1.000
    N77      N        0.15623    0.48250    0.05929    1.000
    N78      N        0.07486    0.57290    0.06287    1.000
    N79      N        0.24420    0.40950    0.40745    1.000
    N80      N        0.24680    0.27660    0.77139    1.000
    N81      N        0.89220    0.06500    0.42209    1.000
    N82      N        0.09769    0.23930    0.47311    1.000
    N83      N        0.18629    0.28740    0.55876    1.000
    N84      N        0.10390    0.20110    0.56457    1.000
    Ag15     Ag       0.27386    0.29096    0.86821    1.000
    Ag16     Ag       0.79517    0.99830    0.36765    1.000
    C253     C        0.65340    0.78010    0.50110    1.000
    C254     C        0.42300    0.59980    0.39250    1.000
    H169     H        0.40330    0.59500    0.35250    1.000
    C255     C        0.62810    0.99290    0.00240    1.000
    C256     C        0.62790    0.93830    0.91110    1.000
    H170     H        0.58540    0.96030    0.88990    1.000
    C257     C        0.40310    0.18310    0.88910    1.000
    H171     H        0.38470    0.18890    0.84910    1.000
    C258     C        0.57530    0.69860    0.50700    1.000
    C259     C        0.48230    0.61250    0.50950    1.000
    H172     H        0.50160    0.61520    0.54950    1.000
    C260     C        0.65980    0.94730    0.97020    1.000
    C261     C        0.74310    0.86630    0.49630    1.000
    H173     H        0.76370    0.86680    0.53650    1.000
    C262     C        0.72290    0.91390    0.99930    1.000
    H174     H        0.74570    0.91870    0.03920    1.000
    C263     C        0.65810    0.01430    0.15140    1.000
    C264     C        0.62760    0.02400    0.08780    1.000
    C265     C        0.77160    0.90720    0.46530    1.000
    H175     H        0.81180    0.93460    0.48560    1.000
    C266     C        0.46090    0.13870    0.91550    1.000
    H176     H        0.48120    0.11610    0.89380    1.000
    C267     C        0.68380    0.82450    0.46681    1.000
    C268     C        0.69040    0.75740    0.65200    1.000
    C269     C        0.45720    0.16590    0.00540    1.000
    H177     H        0.47500    0.16250    0.04540    1.000
    C270     C        0.75270    0.79260    0.68100    1.000
    H178     H        0.77670    0.81030    0.66080    1.000
    C271     C        0.75140    0.87340    0.96880    1.000
    H179     H        0.79370    0.85070    0.98910    1.000
    C272     C        0.55010    0.07710    0.00540    1.000
    C273     C        0.48240    0.64230    0.41860    1.000
    H180     H        0.50190    0.66560    0.39640    1.000
    C274     C        0.65840    0.74780    0.58800    1.000
    C275     C        0.77950    0.80150    0.74040    1.000
    H181     H        0.82150    0.82560    0.75950    1.000
    C276     C        0.68670    0.74250    0.74280    1.000
    H182     H        0.66380    0.72460    0.76380    1.000
    C277     C        0.65630    0.73250    0.68370    1.000
    H183     H        0.61380    0.70930    0.66550    1.000
    C278     C        0.66050    0.89570    0.88400    1.000
    H184     H        0.63830    0.88830    0.84430    1.000
    C279     C        0.71180    0.96270    0.17800    1.000
    H185     H        0.72780    0.93230    0.15610    1.000
    C280     C        0.39900    0.20900    0.97460    1.000
    H186     H        0.37760    0.23270    0.99510    1.000
    C281     C        0.74130    0.95660    0.23720    1.000
    H187     H        0.77720    0.92120    0.25450    1.000
    C282     C        0.51270    0.65000    0.47790    1.000
    C283     C        0.48900    0.12760    0.97510    1.000
    C284     C        0.65540    0.82510    0.40740    1.000
    H188     H        0.61610    0.79650    0.38620    1.000
    C285     C        0.42220    0.57090    0.47940    1.000
    H189     H        0.40210    0.54590    0.50050    1.000
    C286     C        0.63370    0.05480    0.18530    1.000
    H190     H        0.59560    0.08700    0.16870    1.000
    C287     C        0.66720    0.04640    0.24430    1.000
    H191     H        0.65110    0.07540    0.26680    1.000
    C288     C        0.68630    0.86900    0.37980    1.000
    H192     H        0.66570    0.87070    0.33970    1.000
    N85      N        0.37162    0.21870    0.91768    1.000
    N86      N        0.72200    0.86490    0.91183    1.000
    N87      N        0.72080    0.99970    0.27132    1.000
    N88      N        0.57450    0.03930    0.97287    1.000
    N89      N        0.65623    0.98250    0.05929    1.000
    N90      N        0.57486    0.07290    0.06287    1.000
    N91      N        0.74420    0.90950    0.40745    1.000
    N92      N        0.74680    0.77660    0.77139    1.000
    N93      N        0.39220    0.56500    0.42209    1.000
    N94      N        0.59769    0.73930    0.47311    1.000
    N95      N        0.68629    0.78740    0.55876    1.000
    N96      N        0.60390    0.70110    0.56457    1.000
