# CIF file generated by openbabel 3.1.0, see https://openbabel.org
data_I
_chemical_name_common 'image0'
_cell_length_a 38.3323
_cell_length_b 15.1848
_cell_length_c 32.1945
_cell_angle_alpha 90
_cell_angle_beta 91.6553
_cell_angle_gamma 90
_space_group_name_H-M_alt 'P 1'
_space_group_name_Hall 'P 1'
loop_
    _symmetry_equiv_pos_as_xyz
    x,y,z
loop_
    _atom_site_label
    _atom_site_type_symbol
    _atom_site_fract_x
    _atom_site_fract_y
    _atom_site_fract_z
    _atom_site_occupancy
    In1      In       0.78590    0.04024    0.80123    1.000
    O1       O        0.74270    0.06110    0.75276    1.000
    O2       O        0.75807    0.92570    0.76800    1.000
    O3       O        0.31493    0.64170    0.76391    1.000
    O4       O        0.32898    0.50410    0.75737    1.000
    O5       O        0.74468    0.97820    0.34705    1.000
    O6       O        0.75883    0.84180    0.33424    1.000
    O7       O        0.31291    0.57150    0.33846    1.000
    O8       O        0.32925    0.43440    0.34840    1.000
    C1       C        0.73882    0.97910    0.74819    1.000
    C2       C        0.71050    0.94390    0.71981    1.000
    C3       C        0.68748    0.00300    0.69961    1.000
    H1       H        0.69040    0.06340    0.70290    1.000
    C4       C        0.66009    0.96980    0.67450    1.000
    H2       H        0.64480    0.00870    0.66110    1.000
    C5       C        0.65547    0.88010    0.66950    1.000
    C6       C        0.67923    0.82200    0.68844    1.000
    H3       H        0.67700    0.76170    0.68400    1.000
    C7       C        0.70630    0.85410    0.71403    1.000
    H4       H        0.72160    0.81500    0.72730    1.000
    C8       C        0.62582    0.84600    0.64419    1.000
    C9       C        0.61164    0.89110    0.61070    1.000
    H5       H        0.62110    0.94530    0.60370    1.000
    C10      C        0.58378    0.85870    0.58703    1.000
    H6       H        0.57500    0.89080    0.56450    1.000
    C11      C        0.56880    0.77750    0.59705    1.000
    C12      C        0.58210    0.73230    0.63140    1.000
    H7       H        0.57160    0.67990    0.63930    1.000
    C13      C        0.61028    0.76320    0.65385    1.000
    H8       H        0.61950    0.72990    0.67580    1.000
    C14      C        0.53837    0.74040    0.57247    1.000
    C15      C        0.50789    0.71690    0.59801    1.000
    C16      C        0.49270    0.77870    0.62280    1.000
    H9       H        0.50140    0.83590    0.62320    1.000
    C17      C        0.46513    0.75810    0.64680    1.000
    H10      H        0.45550    0.80190    0.66310    1.000
    C18      C        0.45109    0.67520    0.64773    1.000
    C19      C        0.46811    0.61290    0.62550    1.000
    H11      H        0.46170    0.55420    0.62820    1.000
    C20      C        0.49437    0.63390    0.59940    1.000
    H12      H        0.50320    0.59060    0.58220    1.000
    C21      C        0.42061    0.65250    0.67355    1.000
    C22      C        0.39978    0.71570    0.69040    1.000
    H13      H        0.40450    0.77470    0.68520    1.000
    C23      C        0.37173    0.69410    0.71520    1.000
    H14      H        0.35830    0.73860    0.72640    1.000
    C24      C        0.36393    0.60830    0.72304    1.000
    C25      C        0.38470    0.54380    0.70680    1.000
    H15      H        0.38040    0.48490    0.71290    1.000
    C26      C        0.41220    0.56600    0.68110    1.000
    H16      H        0.42500    0.52150    0.66880    1.000
    C27      C        0.33388    0.58470    0.74940    1.000
    C28      C        0.53859    0.72850    0.53111    1.000
    C29      C        0.56946    0.74860    0.50554    1.000
    C30      C        0.56648    0.81320    0.47492    1.000
    H17      H        0.54520    0.84140    0.47000    1.000
    C31      C        0.59513    0.83590    0.45171    1.000
    H18      H        0.59300    0.88170    0.43270    1.000
    C32      C        0.62663    0.79250    0.45603    1.000
    C33      C        0.62922    0.72580    0.48595    1.000
    H19      H        0.65000    0.69470    0.48920    1.000
    C34      C        0.60124    0.70480    0.51106    1.000
    H20      H        0.60380    0.66170    0.53140    1.000
    C35      C        0.65695    0.81780    0.43090    1.000
    C36      C        0.66277    0.90460    0.42140    1.000
    H21      H        0.64760    0.94680    0.43150    1.000
    C37      C        0.69036    0.93240    0.39750    1.000
    H22      H        0.69420    0.99190    0.39270    1.000
    C38      C        0.71203    0.86820    0.38090    1.000
    C39      C        0.70709    0.78180    0.39022    1.000
    H23      H        0.72200    0.73960    0.37960    1.000
    C40      C        0.67974    0.75510    0.41565    1.000
    H24      H        0.67690    0.69590    0.42220    1.000
    C41      C        0.74017    0.89650    0.35259    1.000
    C42      C        0.50745    0.69780    0.50655    1.000
    C43      C        0.47526    0.73950    0.50849    1.000
    H25      H        0.47260    0.78690    0.52640    1.000
    C44      C        0.44731    0.71150    0.48406    1.000
    H26      H        0.42640    0.74230    0.48500    1.000
    C45      C        0.44946    0.63850    0.45810    1.000
    C46      C        0.48184    0.59610    0.45630    1.000
    H27      H        0.48440    0.54770    0.43900    1.000
    C47      C        0.51004    0.62580    0.48002    1.000
    H28      H        0.53130    0.59680    0.47820    1.000
    C48      C        0.41887    0.60550    0.43228    1.000
    C49      C        0.39504    0.66490    0.41548    1.000
    H29      H        0.39800    0.72480    0.42030    1.000
    C50      C        0.36678    0.63560    0.39147    1.000
    H30      H        0.35080    0.67600    0.38040    1.000
    C51      C        0.36215    0.54850    0.38393    1.000
    C52      C        0.38543    0.48650    0.40157    1.000
    H31      H        0.38190    0.42660    0.39740    1.000
    C53      C        0.41416    0.51680    0.42559    1.000
    H32      H        0.43010    0.47670    0.43700    1.000
    C54      C        0.33293    0.51620    0.35553    1.000
    In2      In       0.28590    0.54024    0.80123    1.000
    O9       O        0.24270    0.56110    0.75276    1.000
    O10      O        0.25807    0.42570    0.76800    1.000
    O11      O        0.81493    0.14170    0.76391    1.000
    O12      O        0.82898    0.00410    0.75737    1.000
    O13      O        0.24468    0.47820    0.34705    1.000
    O14      O        0.25883    0.34180    0.33424    1.000
    O15      O        0.81291    0.07150    0.33846    1.000
    O16      O        0.82925    0.93440    0.34840    1.000
    C55      C        0.23882    0.47910    0.74819    1.000
    C56      C        0.21050    0.44390    0.71981    1.000
    C57      C        0.18748    0.50300    0.69961    1.000
    H33      H        0.19040    0.56340    0.70290    1.000
    C58      C        0.16009    0.46980    0.67450    1.000
    H34      H        0.14480    0.50870    0.66110    1.000
    C59      C        0.15547    0.38010    0.66950    1.000
    C60      C        0.17923    0.32200    0.68844    1.000
    H35      H        0.17700    0.26170    0.68400    1.000
    C61      C        0.20630    0.35410    0.71403    1.000
    H36      H        0.22160    0.31500    0.72730    1.000
    C62      C        0.12582    0.34600    0.64419    1.000
    C63      C        0.11164    0.39110    0.61070    1.000
    H37      H        0.12110    0.44530    0.60370    1.000
    C64      C        0.08378    0.35870    0.58703    1.000
    H38      H        0.07500    0.39080    0.56450    1.000
    C65      C        0.06880    0.27750    0.59705    1.000
    C66      C        0.08210    0.23230    0.63140    1.000
    H39      H        0.07160    0.17990    0.63930    1.000
    C67      C        0.11028    0.26320    0.65385    1.000
    H40      H        0.11950    0.22990    0.67580    1.000
    C68      C        0.03837    0.24040    0.57247    1.000
    C69      C        0.00789    0.21690    0.59801    1.000
    C70      C        0.99270    0.27870    0.62280    1.000
    H41      H        0.00140    0.33590    0.62320    1.000
    C71      C        0.96513    0.25810    0.64680    1.000
    H42      H        0.95550    0.30190    0.66310    1.000
    C72      C        0.95109    0.17520    0.64773    1.000
    C73      C        0.96811    0.11290    0.62550    1.000
    H43      H        0.96170    0.05420    0.62820    1.000
    C74      C        0.99437    0.13390    0.59940    1.000
    H44      H        0.00320    0.09060    0.58220    1.000
    C75      C        0.92061    0.15250    0.67355    1.000
    C76      C        0.89978    0.21570    0.69040    1.000
    H45      H        0.90450    0.27470    0.68520    1.000
    C77      C        0.87173    0.19410    0.71520    1.000
    H46      H        0.85830    0.23860    0.72640    1.000
    C78      C        0.86393    0.10830    0.72304    1.000
    C79      C        0.88470    0.04380    0.70680    1.000
    H47      H        0.88040    0.98490    0.71290    1.000
    C80      C        0.91220    0.06600    0.68110    1.000
    H48      H        0.92500    0.02150    0.66880    1.000
    C81      C        0.83388    0.08470    0.74940    1.000
    C82      C        0.03859    0.22850    0.53111    1.000
    C83      C        0.06946    0.24860    0.50554    1.000
    C84      C        0.06648    0.31320    0.47492    1.000
    H49      H        0.04520    0.34140    0.47000    1.000
    C85      C        0.09513    0.33590    0.45171    1.000
    H50      H        0.09300    0.38170    0.43270    1.000
    C86      C        0.12663    0.29250    0.45603    1.000
    C87      C        0.12922    0.22580    0.48595    1.000
    H51      H        0.15000    0.19470    0.48920    1.000
    C88      C        0.10124    0.20480    0.51106    1.000
    H52      H        0.10380    0.16170    0.53140    1.000
    C89      C        0.15695    0.31780    0.43090    1.000
    C90      C        0.16277    0.40460    0.42140    1.000
    H53      H        0.14760    0.44680    0.43150    1.000
    C91      C        0.19036    0.43240    0.39750    1.000
    H54      H        0.19420    0.49190    0.39270    1.000
    C92      C        0.21203    0.36820    0.38090    1.000
    C93      C        0.20709    0.28180    0.39022    1.000
    H55      H        0.22200    0.23960    0.37960    1.000
    C94      C        0.17974    0.25510    0.41565    1.000
    H56      H        0.17690    0.19590    0.42220    1.000
    C95      C        0.24017    0.39650    0.35259    1.000
    C96      C        0.00745    0.19780    0.50655    1.000
    C97      C        0.97526    0.23950    0.50849    1.000
    H57      H        0.97260    0.28690    0.52640    1.000
    C98      C        0.94731    0.21150    0.48406    1.000
    H58      H        0.92640    0.24230    0.48500    1.000
    C99      C        0.94946    0.13850    0.45810    1.000
    C100     C        0.98184    0.09610    0.45630    1.000
    H59      H        0.98440    0.04770    0.43900    1.000
    C101     C        0.01004    0.12580    0.48002    1.000
    H60      H        0.03130    0.09680    0.47820    1.000
    C102     C        0.91887    0.10550    0.43228    1.000
    C103     C        0.89504    0.16490    0.41548    1.000
    H61      H        0.89800    0.22480    0.42030    1.000
    C104     C        0.86678    0.13560    0.39147    1.000
    H62      H        0.85080    0.17600    0.38040    1.000
    C105     C        0.86215    0.04850    0.38393    1.000
    C106     C        0.88543    0.98650    0.40157    1.000
    H63      H        0.88190    0.92660    0.39740    1.000
    C107     C        0.91416    0.01680    0.42559    1.000
    H64      H        0.93010    0.97670    0.43700    1.000
    C108     C        0.83293    0.01620    0.35553    1.000
    In3      In       0.78590    0.95976    0.30123    1.000
    O17      O        0.74270    0.93890    0.25276    1.000
    O18      O        0.75807    0.07430    0.26800    1.000
    O19      O        0.31493    0.35830    0.26391    1.000
    O20      O        0.32898    0.49590    0.25737    1.000
    O21      O        0.74468    0.02180    0.84705    1.000
    O22      O        0.75883    0.15820    0.83424    1.000
    O23      O        0.31291    0.42850    0.83846    1.000
    O24      O        0.32925    0.56560    0.84840    1.000
    C109     C        0.73882    0.02090    0.24819    1.000
    C110     C        0.71050    0.05610    0.21981    1.000
    C111     C        0.68748    0.99700    0.19961    1.000
    H65      H        0.69040    0.93660    0.20290    1.000
    C112     C        0.66009    0.03020    0.17450    1.000
    H66      H        0.64480    0.99130    0.16110    1.000
    C113     C        0.65547    0.11990    0.16950    1.000
    C114     C        0.67923    0.17800    0.18844    1.000
    H67      H        0.67700    0.23830    0.18400    1.000
    C115     C        0.70630    0.14590    0.21403    1.000
    H68      H        0.72160    0.18500    0.22730    1.000
    C116     C        0.62582    0.15400    0.14419    1.000
    C117     C        0.61164    0.10890    0.11070    1.000
    H69      H        0.62110    0.05470    0.10370    1.000
    C118     C        0.58378    0.14130    0.08703    1.000
    H70      H        0.57500    0.10920    0.06450    1.000
    C119     C        0.56880    0.22250    0.09705    1.000
    C120     C        0.58210    0.26770    0.13140    1.000
    H71      H        0.57160    0.32010    0.13930    1.000
    C121     C        0.61028    0.23680    0.15385    1.000
    H72      H        0.61950    0.27010    0.17580    1.000
    C122     C        0.53837    0.25960    0.07247    1.000
    C123     C        0.50789    0.28310    0.09801    1.000
    C124     C        0.49270    0.22130    0.12280    1.000
    H73      H        0.50140    0.16410    0.12320    1.000
    C125     C        0.46513    0.24190    0.14680    1.000
    H74      H        0.45550    0.19810    0.16310    1.000
    C126     C        0.45109    0.32480    0.14773    1.000
    C127     C        0.46811    0.38710    0.12550    1.000
    H75      H        0.46170    0.44580    0.12820    1.000
    C128     C        0.49437    0.36610    0.09940    1.000
    H76      H        0.50320    0.40940    0.08220    1.000
    C129     C        0.42061    0.34750    0.17355    1.000
    C130     C        0.39978    0.28430    0.19040    1.000
    H77      H        0.40450    0.22530    0.18520    1.000
    C131     C        0.37173    0.30590    0.21520    1.000
    H78      H        0.35830    0.26140    0.22640    1.000
    C132     C        0.36393    0.39170    0.22304    1.000
    C133     C        0.38470    0.45620    0.20680    1.000
    H79      H        0.38040    0.51510    0.21290    1.000
    C134     C        0.41220    0.43400    0.18110    1.000
    H80      H        0.42500    0.47850    0.16880    1.000
    C135     C        0.33388    0.41530    0.24940    1.000
    C136     C        0.53859    0.27150    0.03111    1.000
    C137     C        0.56946    0.25140    0.00554    1.000
    C138     C        0.56648    0.18680    0.97492    1.000
    H81      H        0.54520    0.15860    0.97000    1.000
    C139     C        0.59513    0.16410    0.95171    1.000
    H82      H        0.59300    0.11830    0.93270    1.000
    C140     C        0.62663    0.20750    0.95603    1.000
    C141     C        0.62922    0.27420    0.98595    1.000
    H83      H        0.65000    0.30530    0.98920    1.000
    C142     C        0.60124    0.29520    0.01106    1.000
    H84      H        0.60380    0.33830    0.03140    1.000
    C143     C        0.65695    0.18220    0.93090    1.000
    C144     C        0.66277    0.09540    0.92140    1.000
    H85      H        0.64760    0.05320    0.93150    1.000
    C145     C        0.69036    0.06760    0.89750    1.000
    H86      H        0.69420    0.00810    0.89270    1.000
    C146     C        0.71203    0.13180    0.88090    1.000
    C147     C        0.70709    0.21820    0.89022    1.000
    H87      H        0.72200    0.26040    0.87960    1.000
    C148     C        0.67974    0.24490    0.91565    1.000
    H88      H        0.67690    0.30410    0.92220    1.000
    C149     C        0.74017    0.10350    0.85259    1.000
    C150     C        0.50745    0.30220    0.00655    1.000
    C151     C        0.47526    0.26050    0.00849    1.000
    H89      H        0.47260    0.21310    0.02640    1.000
    C152     C        0.44731    0.28850    0.98406    1.000
    H90      H        0.42640    0.25770    0.98500    1.000
    C153     C        0.44946    0.36150    0.95810    1.000
    C154     C        0.48184    0.40390    0.95630    1.000
    H91      H        0.48440    0.45230    0.93900    1.000
    C155     C        0.51004    0.37420    0.98002    1.000
    H92      H        0.53130    0.40320    0.97820    1.000
    C156     C        0.41887    0.39450    0.93228    1.000
    C157     C        0.39504    0.33510    0.91548    1.000
    H93      H        0.39800    0.27520    0.92030    1.000
    C158     C        0.36678    0.36440    0.89147    1.000
    H94      H        0.35080    0.32400    0.88040    1.000
    C159     C        0.36215    0.45150    0.88393    1.000
    C160     C        0.38543    0.51350    0.90157    1.000
    H95      H        0.38190    0.57340    0.89740    1.000
    C161     C        0.41416    0.48320    0.92559    1.000
    H96      H        0.43010    0.52330    0.93700    1.000
    C162     C        0.33293    0.48380    0.85553    1.000
    In4      In       0.28590    0.45976    0.30123    1.000
    O25      O        0.24270    0.43890    0.25276    1.000
    O26      O        0.25807    0.57430    0.26800    1.000
    O27      O        0.81493    0.85830    0.26391    1.000
    O28      O        0.82898    0.99590    0.25737    1.000
    O29      O        0.24468    0.52180    0.84705    1.000
    O30      O        0.25883    0.65820    0.83424    1.000
    O31      O        0.81291    0.92850    0.83846    1.000
    O32      O        0.82925    0.06560    0.84840    1.000
    C163     C        0.23882    0.52090    0.24819    1.000
    C164     C        0.21050    0.55610    0.21981    1.000
    C165     C        0.18748    0.49700    0.19961    1.000
    H97      H        0.19040    0.43660    0.20290    1.000
    C166     C        0.16009    0.53020    0.17450    1.000
    H98      H        0.14480    0.49130    0.16110    1.000
    C167     C        0.15547    0.61990    0.16950    1.000
    C168     C        0.17923    0.67800    0.18844    1.000
    H99      H        0.17700    0.73830    0.18400    1.000
    C169     C        0.20630    0.64590    0.21403    1.000
    H100     H        0.22160    0.68500    0.22730    1.000
    C170     C        0.12582    0.65400    0.14419    1.000
    C171     C        0.11164    0.60890    0.11070    1.000
    H101     H        0.12110    0.55470    0.10370    1.000
    C172     C        0.08378    0.64130    0.08703    1.000
    H102     H        0.07500    0.60920    0.06450    1.000
    C173     C        0.06880    0.72250    0.09705    1.000
    C174     C        0.08210    0.76770    0.13140    1.000
    H103     H        0.07160    0.82010    0.13930    1.000
    C175     C        0.11028    0.73680    0.15385    1.000
    H104     H        0.11950    0.77010    0.17580    1.000
    C176     C        0.03837    0.75960    0.07247    1.000
    C177     C        0.00789    0.78310    0.09801    1.000
    C178     C        0.99270    0.72130    0.12280    1.000
    H105     H        0.00140    0.66410    0.12320    1.000
    C179     C        0.96513    0.74190    0.14680    1.000
    H106     H        0.95550    0.69810    0.16310    1.000
    C180     C        0.95109    0.82480    0.14773    1.000
    C181     C        0.96811    0.88710    0.12550    1.000
    H107     H        0.96170    0.94580    0.12820    1.000
    C182     C        0.99437    0.86610    0.09940    1.000
    H108     H        0.00320    0.90940    0.08220    1.000
    C183     C        0.92061    0.84750    0.17355    1.000
    C184     C        0.89978    0.78430    0.19040    1.000
    H109     H        0.90450    0.72530    0.18520    1.000
    C185     C        0.87173    0.80590    0.21520    1.000
    H110     H        0.85830    0.76140    0.22640    1.000
    C186     C        0.86393    0.89170    0.22304    1.000
    C187     C        0.88470    0.95620    0.20680    1.000
    H111     H        0.88040    0.01510    0.21290    1.000
    C188     C        0.91220    0.93400    0.18110    1.000
    H112     H        0.92500    0.97850    0.16880    1.000
    C189     C        0.83388    0.91530    0.24940    1.000
    C190     C        0.03859    0.77150    0.03111    1.000
    C191     C        0.06946    0.75140    0.00554    1.000
    C192     C        0.06648    0.68680    0.97492    1.000
    H113     H        0.04520    0.65860    0.97000    1.000
    C193     C        0.09513    0.66410    0.95171    1.000
    H114     H        0.09300    0.61830    0.93270    1.000
    C194     C        0.12663    0.70750    0.95603    1.000
    C195     C        0.12922    0.77420    0.98595    1.000
    H115     H        0.15000    0.80530    0.98920    1.000
    C196     C        0.10124    0.79520    0.01106    1.000
    H116     H        0.10380    0.83830    0.03140    1.000
    C197     C        0.15695    0.68220    0.93090    1.000
    C198     C        0.16277    0.59540    0.92140    1.000
    H117     H        0.14760    0.55320    0.93150    1.000
    C199     C        0.19036    0.56760    0.89750    1.000
    H118     H        0.19420    0.50810    0.89270    1.000
    C200     C        0.21203    0.63180    0.88090    1.000
    C201     C        0.20709    0.71820    0.89022    1.000
    H119     H        0.22200    0.76040    0.87960    1.000
    C202     C        0.17974    0.74490    0.91565    1.000
    H120     H        0.17690    0.80410    0.92220    1.000
    C203     C        0.24017    0.60350    0.85259    1.000
    C204     C        0.00745    0.80220    0.00655    1.000
    C205     C        0.97526    0.76050    0.00849    1.000
    H121     H        0.97260    0.71310    0.02640    1.000
    C206     C        0.94731    0.78850    0.98406    1.000
    H122     H        0.92640    0.75770    0.98500    1.000
    C207     C        0.94946    0.86150    0.95810    1.000
    C208     C        0.98184    0.90390    0.95630    1.000
    H123     H        0.98440    0.95230    0.93900    1.000
    C209     C        0.01004    0.87420    0.98002    1.000
    H124     H        0.03130    0.90320    0.97820    1.000
    C210     C        0.91887    0.89450    0.93228    1.000
    C211     C        0.89504    0.83510    0.91548    1.000
    H125     H        0.89800    0.77520    0.92030    1.000
    C212     C        0.86678    0.86440    0.89147    1.000
    H126     H        0.85080    0.82400    0.88040    1.000
    C213     C        0.86215    0.95150    0.88393    1.000
    C214     C        0.88543    0.01350    0.90157    1.000
    H127     H        0.88190    0.07340    0.89740    1.000
    C215     C        0.91416    0.98320    0.92559    1.000
    H128     H        0.93010    0.02330    0.93700    1.000
    C216     C        0.83293    0.98380    0.85553    1.000
    In5      In       0.21410    0.04024    0.69877    1.000
    O33      O        0.25730    0.06110    0.74724    1.000
    O34      O        0.24193    0.92570    0.73200    1.000
    O35      O        0.68507    0.64170    0.73609    1.000
    O36      O        0.67102    0.50410    0.74263    1.000
    O37      O        0.25532    0.97820    0.15295    1.000
    O38      O        0.24117    0.84180    0.16576    1.000
    O39      O        0.68709    0.57150    0.16154    1.000
    O40      O        0.67075    0.43440    0.15160    1.000
    C217     C        0.26118    0.97910    0.75181    1.000
    C218     C        0.28950    0.94390    0.78019    1.000
    C219     C        0.31252    0.00300    0.80039    1.000
    H129     H        0.30960    0.06340    0.79710    1.000
    C220     C        0.33991    0.96980    0.82550    1.000
    H130     H        0.35520    0.00870    0.83890    1.000
    C221     C        0.34453    0.88010    0.83050    1.000
    C222     C        0.32077    0.82200    0.81156    1.000
    H131     H        0.32300    0.76170    0.81600    1.000
    C223     C        0.29370    0.85410    0.78597    1.000
    H132     H        0.27840    0.81500    0.77270    1.000
    C224     C        0.37418    0.84600    0.85581    1.000
    C225     C        0.38836    0.89110    0.88930    1.000
    H133     H        0.37890    0.94530    0.89630    1.000
    C226     C        0.41622    0.85870    0.91297    1.000
    H134     H        0.42500    0.89080    0.93550    1.000
    C227     C        0.43120    0.77750    0.90295    1.000
    C228     C        0.41790    0.73230    0.86860    1.000
    H135     H        0.42840    0.67990    0.86070    1.000
    C229     C        0.38972    0.76320    0.84615    1.000
    H136     H        0.38050    0.72990    0.82420    1.000
    C230     C        0.46163    0.74040    0.92753    1.000
    C231     C        0.49211    0.71690    0.90199    1.000
    C232     C        0.50730    0.77870    0.87720    1.000
    H137     H        0.49860    0.83590    0.87680    1.000
    C233     C        0.53487    0.75810    0.85320    1.000
    H138     H        0.54450    0.80190    0.83690    1.000
    C234     C        0.54891    0.67520    0.85227    1.000
    C235     C        0.53189    0.61290    0.87450    1.000
    H139     H        0.53830    0.55420    0.87180    1.000
    C236     C        0.50563    0.63390    0.90060    1.000
    H140     H        0.49680    0.59060    0.91780    1.000
    C237     C        0.57939    0.65250    0.82645    1.000
    C238     C        0.60022    0.71570    0.80960    1.000
    H141     H        0.59550    0.77470    0.81480    1.000
    C239     C        0.62827    0.69410    0.78480    1.000
    H142     H        0.64170    0.73860    0.77360    1.000
    C240     C        0.63607    0.60830    0.77696    1.000
    C241     C        0.61530    0.54380    0.79320    1.000
    H143     H        0.61960    0.48490    0.78710    1.000
    C242     C        0.58780    0.56600    0.81890    1.000
    H144     H        0.57500    0.52150    0.83120    1.000
    C243     C        0.66612    0.58470    0.75060    1.000
    C244     C        0.46141    0.72850    0.96889    1.000
    C245     C        0.43054    0.74860    0.99446    1.000
    C246     C        0.43352    0.81320    0.02508    1.000
    H145     H        0.45480    0.84140    0.03000    1.000
    C247     C        0.40487    0.83590    0.04829    1.000
    H146     H        0.40700    0.88170    0.06730    1.000
    C248     C        0.37337    0.79250    0.04397    1.000
    C249     C        0.37078    0.72580    0.01405    1.000
    H147     H        0.35000    0.69470    0.01080    1.000
    C250     C        0.39876    0.70480    0.98894    1.000
    H148     H        0.39620    0.66170    0.96860    1.000
    C251     C        0.34305    0.81780    0.06910    1.000
    C252     C        0.33723    0.90460    0.07860    1.000
    H149     H        0.35240    0.94680    0.06850    1.000
    C253     C        0.30964    0.93240    0.10250    1.000
    H150     H        0.30580    0.99190    0.10730    1.000
    C254     C        0.28797    0.86820    0.11910    1.000
    C255     C        0.29291    0.78180    0.10978    1.000
    H151     H        0.27800    0.73960    0.12040    1.000
    C256     C        0.32026    0.75510    0.08435    1.000
    H152     H        0.32310    0.69590    0.07780    1.000
    C257     C        0.25983    0.89650    0.14741    1.000
    C258     C        0.49255    0.69780    0.99345    1.000
    C259     C        0.52474    0.73950    0.99151    1.000
    H153     H        0.52740    0.78690    0.97360    1.000
    C260     C        0.55269    0.71150    0.01594    1.000
    H154     H        0.57360    0.74230    0.01500    1.000
    C261     C        0.55054    0.63850    0.04190    1.000
    C262     C        0.51816    0.59610    0.04370    1.000
    H155     H        0.51560    0.54770    0.06100    1.000
    C263     C        0.48996    0.62580    0.01998    1.000
    H156     H        0.46870    0.59680    0.02180    1.000
    C264     C        0.58113    0.60550    0.06772    1.000
    C265     C        0.60496    0.66490    0.08452    1.000
    H157     H        0.60200    0.72480    0.07970    1.000
    C266     C        0.63322    0.63560    0.10853    1.000
    H158     H        0.64920    0.67600    0.11960    1.000
    C267     C        0.63785    0.54850    0.11607    1.000
    C268     C        0.61457    0.48650    0.09843    1.000
    H159     H        0.61810    0.42660    0.10260    1.000
    C269     C        0.58584    0.51680    0.07441    1.000
    H160     H        0.56990    0.47670    0.06300    1.000
    C270     C        0.66707    0.51620    0.14447    1.000
    In6      In       0.71410    0.54024    0.69877    1.000
    O41      O        0.75730    0.56110    0.74724    1.000
    O42      O        0.74193    0.42570    0.73200    1.000
    O43      O        0.18507    0.14170    0.73609    1.000
    O44      O        0.17102    0.00410    0.74263    1.000
    O45      O        0.75532    0.47820    0.15295    1.000
    O46      O        0.74117    0.34180    0.16576    1.000
    O47      O        0.18709    0.07150    0.16154    1.000
    O48      O        0.17075    0.93440    0.15160    1.000
    C271     C        0.76118    0.47910    0.75181    1.000
    C272     C        0.78950    0.44390    0.78019    1.000
    C273     C        0.81252    0.50300    0.80039    1.000
    H161     H        0.80960    0.56340    0.79710    1.000
    C274     C        0.83991    0.46980    0.82550    1.000
    H162     H        0.85520    0.50870    0.83890    1.000
    C275     C        0.84453    0.38010    0.83050    1.000
    C276     C        0.82077    0.32200    0.81156    1.000
    H163     H        0.82300    0.26170    0.81600    1.000
    C277     C        0.79370    0.35410    0.78597    1.000
    H164     H        0.77840    0.31500    0.77270    1.000
    C278     C        0.87418    0.34600    0.85581    1.000
    C279     C        0.88836    0.39110    0.88930    1.000
    H165     H        0.87890    0.44530    0.89630    1.000
    C280     C        0.91622    0.35870    0.91297    1.000
    H166     H        0.92500    0.39080    0.93550    1.000
    C281     C        0.93120    0.27750    0.90295    1.000
    C282     C        0.91790    0.23230    0.86860    1.000
    H167     H        0.92840    0.17990    0.86070    1.000
    C283     C        0.88972    0.26320    0.84615    1.000
    H168     H        0.88050    0.22990    0.82420    1.000
    C284     C        0.96163    0.24040    0.92753    1.000
    C285     C        0.99211    0.21690    0.90199    1.000
    C286     C        0.00730    0.27870    0.87720    1.000
    H169     H        0.99860    0.33590    0.87680    1.000
    C287     C        0.03487    0.25810    0.85320    1.000
    H170     H        0.04450    0.30190    0.83690    1.000
    C288     C        0.04891    0.17520    0.85227    1.000
    C289     C        0.03189    0.11290    0.87450    1.000
    H171     H        0.03830    0.05420    0.87180    1.000
    C290     C        0.00563    0.13390    0.90060    1.000
    H172     H        0.99680    0.09060    0.91780    1.000
    C291     C        0.07939    0.15250    0.82645    1.000
    C292     C        0.10022    0.21570    0.80960    1.000
    H173     H        0.09550    0.27470    0.81480    1.000
    C293     C        0.12827    0.19410    0.78480    1.000
    H174     H        0.14170    0.23860    0.77360    1.000
    C294     C        0.13607    0.10830    0.77696    1.000
    C295     C        0.11530    0.04380    0.79320    1.000
    H175     H        0.11960    0.98490    0.78710    1.000
    C296     C        0.08780    0.06600    0.81890    1.000
    H176     H        0.07500    0.02150    0.83120    1.000
    C297     C        0.16612    0.08470    0.75060    1.000
    C298     C        0.96141    0.22850    0.96889    1.000
    C299     C        0.93054    0.24860    0.99446    1.000
    C300     C        0.93352    0.31320    0.02508    1.000
    H177     H        0.95480    0.34140    0.03000    1.000
    C301     C        0.90487    0.33590    0.04829    1.000
    H178     H        0.90700    0.38170    0.06730    1.000
    C302     C        0.87337    0.29250    0.04397    1.000
    C303     C        0.87078    0.22580    0.01405    1.000
    H179     H        0.85000    0.19470    0.01080    1.000
    C304     C        0.89876    0.20480    0.98894    1.000
    H180     H        0.89620    0.16170    0.96860    1.000
    C305     C        0.84305    0.31780    0.06910    1.000
    C306     C        0.83723    0.40460    0.07860    1.000
    H181     H        0.85240    0.44680    0.06850    1.000
    C307     C        0.80964    0.43240    0.10250    1.000
    H182     H        0.80580    0.49190    0.10730    1.000
    C308     C        0.78797    0.36820    0.11910    1.000
    C309     C        0.79291    0.28180    0.10978    1.000
    H183     H        0.77800    0.23960    0.12040    1.000
    C310     C        0.82026    0.25510    0.08435    1.000
    H184     H        0.82310    0.19590    0.07780    1.000
    C311     C        0.75983    0.39650    0.14741    1.000
    C312     C        0.99255    0.19780    0.99345    1.000
    C313     C        0.02474    0.23950    0.99151    1.000
    H185     H        0.02740    0.28690    0.97360    1.000
    C314     C        0.05269    0.21150    0.01594    1.000
    H186     H        0.07360    0.24230    0.01500    1.000
    C315     C        0.05054    0.13850    0.04190    1.000
    C316     C        0.01816    0.09610    0.04370    1.000
    H187     H        0.01560    0.04770    0.06100    1.000
    C317     C        0.98996    0.12580    0.01998    1.000
    H188     H        0.96870    0.09680    0.02180    1.000
    C318     C        0.08113    0.10550    0.06772    1.000
    C319     C        0.10496    0.16490    0.08452    1.000
    H189     H        0.10200    0.22480    0.07970    1.000
    C320     C        0.13322    0.13560    0.10853    1.000
    H190     H        0.14920    0.17600    0.11960    1.000
    C321     C        0.13785    0.04850    0.11607    1.000
    C322     C        0.11457    0.98650    0.09843    1.000
    H191     H        0.11810    0.92660    0.10260    1.000
    C323     C        0.08584    0.01680    0.07441    1.000
    H192     H        0.06990    0.97670    0.06300    1.000
    C324     C        0.16707    0.01620    0.14447    1.000
    In7      In       0.21410    0.95976    0.19877    1.000
    O49      O        0.25730    0.93890    0.24724    1.000
    O50      O        0.24193    0.07430    0.23200    1.000
    O51      O        0.68507    0.35830    0.23609    1.000
    O52      O        0.67102    0.49590    0.24263    1.000
    O53      O        0.25532    0.02180    0.65295    1.000
    O54      O        0.24117    0.15820    0.66576    1.000
    O55      O        0.68709    0.42850    0.66154    1.000
    O56      O        0.67075    0.56560    0.65160    1.000
    C325     C        0.26118    0.02090    0.25181    1.000
    C326     C        0.28950    0.05610    0.28019    1.000
    C327     C        0.31252    0.99700    0.30039    1.000
    H193     H        0.30960    0.93660    0.29710    1.000
    C328     C        0.33991    0.03020    0.32550    1.000
    H194     H        0.35520    0.99130    0.33890    1.000
    C329     C        0.34453    0.11990    0.33050    1.000
    C330     C        0.32077    0.17800    0.31156    1.000
    H195     H        0.32300    0.23830    0.31600    1.000
    C331     C        0.29370    0.14590    0.28597    1.000
    H196     H        0.27840    0.18500    0.27270    1.000
    C332     C        0.37418    0.15400    0.35581    1.000
    C333     C        0.38836    0.10890    0.38930    1.000
    H197     H        0.37890    0.05470    0.39630    1.000
    C334     C        0.41622    0.14130    0.41297    1.000
    H198     H        0.42500    0.10920    0.43550    1.000
    C335     C        0.43120    0.22250    0.40295    1.000
    C336     C        0.41790    0.26770    0.36860    1.000
    H199     H        0.42840    0.32010    0.36070    1.000
    C337     C        0.38972    0.23680    0.34615    1.000
    H200     H        0.38050    0.27010    0.32420    1.000
    C338     C        0.46163    0.25960    0.42753    1.000
    C339     C        0.49211    0.28310    0.40199    1.000
    C340     C        0.50730    0.22130    0.37720    1.000
    H201     H        0.49860    0.16410    0.37680    1.000
    C341     C        0.53487    0.24190    0.35320    1.000
    H202     H        0.54450    0.19810    0.33690    1.000
    C342     C        0.54891    0.32480    0.35227    1.000
    C343     C        0.53189    0.38710    0.37450    1.000
    H203     H        0.53830    0.44580    0.37180    1.000
    C344     C        0.50563    0.36610    0.40060    1.000
    H204     H        0.49680    0.40940    0.41780    1.000
    C345     C        0.57939    0.34750    0.32645    1.000
    C346     C        0.60022    0.28430    0.30960    1.000
    H205     H        0.59550    0.22530    0.31480    1.000
    C347     C        0.62827    0.30590    0.28480    1.000
    H206     H        0.64170    0.26140    0.27360    1.000
    C348     C        0.63607    0.39170    0.27696    1.000
    C349     C        0.61530    0.45620    0.29320    1.000
    H207     H        0.61960    0.51510    0.28710    1.000
    C350     C        0.58780    0.43400    0.31890    1.000
    H208     H        0.57500    0.47850    0.33120    1.000
    C351     C        0.66612    0.41530    0.25060    1.000
    C352     C        0.46141    0.27150    0.46889    1.000
    C353     C        0.43054    0.25140    0.49446    1.000
    C354     C        0.43352    0.18680    0.52508    1.000
    H209     H        0.45480    0.15860    0.53000    1.000
    C355     C        0.40487    0.16410    0.54829    1.000
    H210     H        0.40700    0.11830    0.56730    1.000
    C356     C        0.37337    0.20750    0.54397    1.000
    C357     C        0.37078    0.27420    0.51405    1.000
    H211     H        0.35000    0.30530    0.51080    1.000
    C358     C        0.39876    0.29520    0.48894    1.000
    H212     H        0.39620    0.33830    0.46860    1.000
    C359     C        0.34305    0.18220    0.56910    1.000
    C360     C        0.33723    0.09540    0.57860    1.000
    H213     H        0.35240    0.05320    0.56850    1.000
    C361     C        0.30964    0.06760    0.60250    1.000
    H214     H        0.30580    0.00810    0.60730    1.000
    C362     C        0.28797    0.13180    0.61910    1.000
    C363     C        0.29291    0.21820    0.60978    1.000
    H215     H        0.27800    0.26040    0.62040    1.000
    C364     C        0.32026    0.24490    0.58435    1.000
    H216     H        0.32310    0.30410    0.57780    1.000
    C365     C        0.25983    0.10350    0.64741    1.000
    C366     C        0.49255    0.30220    0.49345    1.000
    C367     C        0.52474    0.26050    0.49151    1.000
    H217     H        0.52740    0.21310    0.47360    1.000
    C368     C        0.55269    0.28850    0.51594    1.000
    H218     H        0.57360    0.25770    0.51500    1.000
    C369     C        0.55054    0.36150    0.54190    1.000
    C370     C        0.51816    0.40390    0.54370    1.000
    H219     H        0.51560    0.45230    0.56100    1.000
    C371     C        0.48996    0.37420    0.51998    1.000
    H220     H        0.46870    0.40320    0.52180    1.000
    C372     C        0.58113    0.39450    0.56772    1.000
    C373     C        0.60496    0.33510    0.58452    1.000
    H221     H        0.60200    0.27520    0.57970    1.000
    C374     C        0.63322    0.36440    0.60853    1.000
    H222     H        0.64920    0.32400    0.61960    1.000
    C375     C        0.63785    0.45150    0.61607    1.000
    C376     C        0.61457    0.51350    0.59843    1.000
    H223     H        0.61810    0.57340    0.60260    1.000
    C377     C        0.58584    0.48320    0.57441    1.000
    H224     H        0.56990    0.52330    0.56300    1.000
    C378     C        0.66707    0.48380    0.64447    1.000
    In8      In       0.71410    0.45976    0.19877    1.000
    O57      O        0.75730    0.43890    0.24724    1.000
    O58      O        0.74193    0.57430    0.23200    1.000
    O59      O        0.18507    0.85830    0.23609    1.000
    O60      O        0.17102    0.99590    0.24263    1.000
    O61      O        0.75532    0.52180    0.65295    1.000
    O62      O        0.74117    0.65820    0.66576    1.000
    O63      O        0.18709    0.92850    0.66154    1.000
    O64      O        0.17075    0.06560    0.65160    1.000
    C379     C        0.76118    0.52090    0.25181    1.000
    C380     C        0.78950    0.55610    0.28019    1.000
    C381     C        0.81252    0.49700    0.30039    1.000
    H225     H        0.80960    0.43660    0.29710    1.000
    C382     C        0.83991    0.53020    0.32550    1.000
    H226     H        0.85520    0.49130    0.33890    1.000
    C383     C        0.84453    0.61990    0.33050    1.000
    C384     C        0.82077    0.67800    0.31156    1.000
    H227     H        0.82300    0.73830    0.31600    1.000
    C385     C        0.79370    0.64590    0.28597    1.000
    H228     H        0.77840    0.68500    0.27270    1.000
    C386     C        0.87418    0.65400    0.35581    1.000
    C387     C        0.88836    0.60890    0.38930    1.000
    H229     H        0.87890    0.55470    0.39630    1.000
    C388     C        0.91622    0.64130    0.41297    1.000
    H230     H        0.92500    0.60920    0.43550    1.000
    C389     C        0.93120    0.72250    0.40295    1.000
    C390     C        0.91790    0.76770    0.36860    1.000
    H231     H        0.92840    0.82010    0.36070    1.000
    C391     C        0.88972    0.73680    0.34615    1.000
    H232     H        0.88050    0.77010    0.32420    1.000
    C392     C        0.96163    0.75960    0.42753    1.000
    C393     C        0.99211    0.78310    0.40199    1.000
    C394     C        0.00730    0.72130    0.37720    1.000
    H233     H        0.99860    0.66410    0.37680    1.000
    C395     C        0.03487    0.74190    0.35320    1.000
    H234     H        0.04450    0.69810    0.33690    1.000
    C396     C        0.04891    0.82480    0.35227    1.000
    C397     C        0.03189    0.88710    0.37450    1.000
    H235     H        0.03830    0.94580    0.37180    1.000
    C398     C        0.00563    0.86610    0.40060    1.000
    H236     H        0.99680    0.90940    0.41780    1.000
    C399     C        0.07939    0.84750    0.32645    1.000
    C400     C        0.10022    0.78430    0.30960    1.000
    H237     H        0.09550    0.72530    0.31480    1.000
    C401     C        0.12827    0.80590    0.28480    1.000
    H238     H        0.14170    0.76140    0.27360    1.000
    C402     C        0.13607    0.89170    0.27696    1.000
    C403     C        0.11530    0.95620    0.29320    1.000
    H239     H        0.11960    0.01510    0.28710    1.000
    C404     C        0.08780    0.93400    0.31890    1.000
    H240     H        0.07500    0.97850    0.33120    1.000
    C405     C        0.16612    0.91530    0.25060    1.000
    C406     C        0.96141    0.77150    0.46889    1.000
    C407     C        0.93054    0.75140    0.49446    1.000
    C408     C        0.93352    0.68680    0.52508    1.000
    H241     H        0.95480    0.65860    0.53000    1.000
    C409     C        0.90487    0.66410    0.54829    1.000
    H242     H        0.90700    0.61830    0.56730    1.000
    C410     C        0.87337    0.70750    0.54397    1.000
    C411     C        0.87078    0.77420    0.51405    1.000
    H243     H        0.85000    0.80530    0.51080    1.000
    C412     C        0.89876    0.79520    0.48894    1.000
    H244     H        0.89620    0.83830    0.46860    1.000
    C413     C        0.84305    0.68220    0.56910    1.000
    C414     C        0.83723    0.59540    0.57860    1.000
    H245     H        0.85240    0.55320    0.56850    1.000
    C415     C        0.80964    0.56760    0.60250    1.000
    H246     H        0.80580    0.50810    0.60730    1.000
    C416     C        0.78797    0.63180    0.61910    1.000
    C417     C        0.79291    0.71820    0.60978    1.000
    H247     H        0.77800    0.76040    0.62040    1.000
    C418     C        0.82026    0.74490    0.58435    1.000
    H248     H        0.82310    0.80410    0.57780    1.000
    C419     C        0.75983    0.60350    0.64741    1.000
    C420     C        0.99255    0.80220    0.49345    1.000
    C421     C        0.02474    0.76050    0.49151    1.000
    H249     H        0.02740    0.71310    0.47360    1.000
    C422     C        0.05269    0.78850    0.51594    1.000
    H250     H        0.07360    0.75770    0.51500    1.000
    C423     C        0.05054    0.86150    0.54190    1.000
    C424     C        0.01816    0.90390    0.54370    1.000
    H251     H        0.01560    0.95230    0.56100    1.000
    C425     C        0.98996    0.87420    0.51998    1.000
    H252     H        0.96870    0.90320    0.52180    1.000
    C426     C        0.08113    0.89450    0.56772    1.000
    C427     C        0.10496    0.83510    0.58452    1.000
    H253     H        0.10200    0.77520    0.57970    1.000
    C428     C        0.13322    0.86440    0.60853    1.000
    H254     H        0.14920    0.82400    0.61960    1.000
    C429     C        0.13785    0.95150    0.61607    1.000
    C430     C        0.11457    0.01350    0.59843    1.000
    H255     H        0.11810    0.07340    0.60260    1.000
    C431     C        0.08584    0.98320    0.57441    1.000
    H256     H        0.06990    0.02330    0.56300    1.000
    C432     C        0.16707    0.98380    0.64447    1.000
