# CIF file generated by openbabel 3.1.0, see https://openbabel.org
data_I
_chemical_name_common 'image0'
_cell_length_a 9.277
_cell_length_b 13.6193
_cell_length_c 14.7288
_cell_angle_alpha 90
_cell_angle_beta 90.274
_cell_angle_gamma 90
_space_group_name_H-M_alt 'P 1'
_space_group_name_Hall 'P 1'
loop_
    _symmetry_equiv_pos_as_xyz
    x,y,z
loop_
    _atom_site_label
    _atom_site_type_symbol
    _atom_site_fract_x
    _atom_site_fract_y
    _atom_site_fract_z
    _atom_site_occupancy
    Pr1      Pr       0.25116    0.99685    0.09263    1.000
    C1       C        0.49350    0.10470    0.33660    1.000
    C2       C        0.46740    0.19760    0.37240    1.000
    H1       H        0.39700    0.23910    0.34520    1.000
    C3       C        0.54460    0.22950    0.44790    1.000
    C4       C        0.64340    0.16630    0.49000    1.000
    H2       H        0.69660    0.18820    0.54140    1.000
    C5       C        0.66430    0.07220    0.45730    1.000
    C6       C        0.59180    0.04340    0.37990    1.000
    H3       H        0.60940    0.97990    0.35540    1.000
    C7       C        0.75920    0.00310    0.50980    1.000
    H4       H        0.69700    0.97100    0.54900    1.000
    H5       H        0.82300    0.04000    0.54900    1.000
    C8       C        0.84380    0.92960    0.45480    1.000
    C9       C        0.91100    0.95480    0.37390    1.000
    H6       H        0.89400    0.01790    0.34850    1.000
    C10      C        0.00210    0.89020    0.32910    1.000
    C11      C        0.02630    0.79670    0.36550    1.000
    H7       H        0.09110    0.75280    0.33660    1.000
    C12      C        0.95480    0.76800    0.44460    1.000
    C13      C        0.86460    0.83490    0.48820    1.000
    H8       H        0.81620    0.81540    0.54200    1.000
    C14      C        0.41480    0.06740    0.25420    1.000
    C15      C        0.52530    0.33190    0.48670    1.000
    C16      C        0.08060    0.92490    0.24630    1.000
    C17      C        0.97390    0.66750    0.48510    1.000
    O1       O        0.47120    0.99750    0.20830    1.000
    O2       O        0.29570    0.10490    0.23280    1.000
    O3       O        0.41970    0.37990    0.46070    1.000
    O4       O        0.61830    0.36150    0.54150    1.000
    O5       O        0.02400    0.99110    0.19830    1.000
    O6       O        0.20140    0.88710    0.22860    1.000
    O7       O        0.06130    0.61020    0.44890    1.000
    O8       O        0.90230    0.64600    0.55390    1.000
    Pr2      Pr       0.24884    0.49685    0.40737    1.000
    C18      C        0.00650    0.60470    0.16340    1.000
    C19      C        0.03260    0.69760    0.12760    1.000
    H9       H        0.10300    0.73910    0.15480    1.000
    C20      C        0.95540    0.72950    0.05210    1.000
    C21      C        0.85660    0.66630    0.01000    1.000
    H10      H        0.80340    0.68820    0.95860    1.000
    C22      C        0.83570    0.57220    0.04270    1.000
    C23      C        0.90820    0.54340    0.12010    1.000
    H11      H        0.89060    0.47990    0.14460    1.000
    C24      C        0.74080    0.50310    0.99020    1.000
    H12      H        0.80300    0.47100    0.95100    1.000
    H13      H        0.67700    0.54000    0.95100    1.000
    C25      C        0.65620    0.42960    0.04520    1.000
    C26      C        0.58900    0.45480    0.12610    1.000
    H14      H        0.60600    0.51790    0.15150    1.000
    C27      C        0.49790    0.39020    0.17090    1.000
    C28      C        0.47370    0.29670    0.13450    1.000
    H15      H        0.40890    0.25280    0.16340    1.000
    C29      C        0.54520    0.26800    0.05540    1.000
    C30      C        0.63540    0.33490    0.01180    1.000
    H16      H        0.68380    0.31540    0.95800    1.000
    C31      C        0.08520    0.56740    0.24580    1.000
    C32      C        0.97470    0.83190    0.01330    1.000
    C33      C        0.41940    0.42490    0.25370    1.000
    C34      C        0.52610    0.16750    0.01490    1.000
    O9       O        0.02880    0.49750    0.29170    1.000
    O10      O        0.20430    0.60490    0.26720    1.000
    O11      O        0.08030    0.87990    0.03930    1.000
    O12      O        0.88170    0.86150    0.95850    1.000
    O13      O        0.47600    0.49110    0.30170    1.000
    O14      O        0.29860    0.38710    0.27140    1.000
    O15      O        0.43870    0.11020    0.05110    1.000
    O16      O        0.59770    0.14600    0.94610    1.000
    Pr3      Pr       0.74884    0.00315    0.90737    1.000
    C35      C        0.50650    0.89530    0.66340    1.000
    C36      C        0.53260    0.80240    0.62760    1.000
    H17      H        0.60300    0.76090    0.65480    1.000
    C37      C        0.45540    0.77050    0.55210    1.000
    C38      C        0.35660    0.83370    0.51000    1.000
    H18      H        0.30340    0.81180    0.45860    1.000
    C39      C        0.33570    0.92780    0.54270    1.000
    C40      C        0.40820    0.95660    0.62010    1.000
    H19      H        0.39060    0.02010    0.64460    1.000
    C41      C        0.24080    0.99690    0.49020    1.000
    H20      H        0.30300    0.02900    0.45100    1.000
    H21      H        0.17700    0.96000    0.45100    1.000
    C42      C        0.15620    0.07040    0.54520    1.000
    C43      C        0.08900    0.04520    0.62610    1.000
    H22      H        0.10600    0.98210    0.65150    1.000
    C44      C        0.99790    0.10980    0.67090    1.000
    C45      C        0.97370    0.20330    0.63450    1.000
    H23      H        0.90890    0.24720    0.66340    1.000
    C46      C        0.04520    0.23200    0.55540    1.000
    C47      C        0.13540    0.16510    0.51180    1.000
    H24      H        0.18380    0.18460    0.45800    1.000
    C48      C        0.58520    0.93260    0.74580    1.000
    C49      C        0.47470    0.66810    0.51330    1.000
    C50      C        0.91940    0.07510    0.75370    1.000
    C51      C        0.02610    0.33250    0.51490    1.000
    O17      O        0.52880    0.00250    0.79170    1.000
    O18      O        0.70430    0.89510    0.76720    1.000
    O19      O        0.58030    0.62010    0.53930    1.000
    O20      O        0.38170    0.63850    0.45850    1.000
    O21      O        0.97600    0.00890    0.80170    1.000
    O22      O        0.79860    0.11290    0.77140    1.000
    O23      O        0.93870    0.38980    0.55110    1.000
    O24      O        0.09770    0.35400    0.44610    1.000
    Pr4      Pr       0.75116    0.50315    0.59263    1.000
    C52      C        0.99350    0.39530    0.83660    1.000
    C53      C        0.96740    0.30240    0.87240    1.000
    H25      H        0.89700    0.26090    0.84520    1.000
    C54      C        0.04460    0.27050    0.94790    1.000
    C55      C        0.14340    0.33370    0.99000    1.000
    H26      H        0.19660    0.31180    0.04140    1.000
    C56      C        0.16430    0.42780    0.95730    1.000
    C57      C        0.09180    0.45660    0.87990    1.000
    H27      H        0.10940    0.52010    0.85540    1.000
    C58      C        0.25920    0.49690    0.00980    1.000
    H28      H        0.19700    0.52900    0.04900    1.000
    H29      H        0.32300    0.46000    0.04900    1.000
    C59      C        0.34380    0.57040    0.95480    1.000
    C60      C        0.41100    0.54520    0.87390    1.000
    H30      H        0.39400    0.48210    0.84850    1.000
    C61      C        0.50210    0.60980    0.82910    1.000
    C62      C        0.52630    0.70330    0.86550    1.000
    H31      H        0.59110    0.74720    0.83660    1.000
    C63      C        0.45480    0.73200    0.94460    1.000
    C64      C        0.36460    0.66510    0.98820    1.000
    H32      H        0.31620    0.68460    0.04200    1.000
    C65      C        0.91480    0.43260    0.75420    1.000
    C66      C        0.02530    0.16810    0.98670    1.000
    C67      C        0.58060    0.57510    0.74630    1.000
    C68      C        0.47390    0.83250    0.98510    1.000
    O25      O        0.97120    0.50250    0.70830    1.000
    O26      O        0.79570    0.39510    0.73280    1.000
    O27      O        0.91970    0.12010    0.96070    1.000
    O28      O        0.11830    0.13850    0.04150    1.000
    O29      O        0.52400    0.50890    0.69830    1.000
    O30      O        0.70140    0.61290    0.72860    1.000
    O31      O        0.56130    0.88980    0.94890    1.000
    O32      O        0.40230    0.85400    0.05390    1.000
