# CIF file generated by openbabel 3.1.0, see https://openbabel.org
data_I
_chemical_name_common 'image0'
_cell_length_a 19.2907
_cell_length_b 19.2907
_cell_length_c 19.2907
_cell_angle_alpha 90
_cell_angle_beta 90
_cell_angle_gamma 90
_space_group_name_H-M_alt 'P 1'
_space_group_name_Hall 'P 1'
loop_
    _symmetry_equiv_pos_as_xyz
    x,y,z
loop_
    _atom_site_label
    _atom_site_type_symbol
    _atom_site_fract_x
    _atom_site_fract_y
    _atom_site_fract_z
    _atom_site_occupancy
    V1       V        0.75509    0.39102    0.14242    1.000
    O1       O        0.80451    0.48174    0.15148    1.000
    O2       O        0.80893    0.80864    0.13710    1.000
    O3       O        0.74087    0.72206    0.10263    1.000
    O4       O        0.89115    0.45975    0.22602    1.000
    C1       C        0.79530    0.74479    0.13075    1.000
    C2       C        0.85500    0.50048    0.18967    1.000
    C3       C        0.84526    0.69392    0.16074    1.000
    C4       C        0.83040    0.62343    0.15697    1.000
    H1       H        0.79249    0.60811    0.13144    1.000
    C5       C        0.87225    0.57596    0.19139    1.000
    C6       C        0.92870    0.59920    0.23010    1.000
    H2       H        0.95600    0.56750    0.25410    1.000
    C7       C        0.90300    0.71670    0.19770    1.000
    H3       H        0.91400    0.76360    0.19880    1.000
    C8       C        0.94410    0.66930    0.23280    1.000
    H4       H        0.98220    0.68450    0.25820    1.000
    V2       V        0.74491    0.60898    0.64242    1.000
    O5       O        0.69549    0.51826    0.65148    1.000
    O6       O        0.69107    0.19136    0.63710    1.000
    O7       O        0.75913    0.27794    0.60263    1.000
    O8       O        0.60885    0.54025    0.72602    1.000
    C9       C        0.70470    0.25521    0.63075    1.000
    C10      C        0.64500    0.49952    0.68967    1.000
    C11      C        0.65474    0.30608    0.66074    1.000
    C12      C        0.66960    0.37657    0.65697    1.000
    H5       H        0.70751    0.39189    0.63144    1.000
    C13      C        0.62775    0.42404    0.69139    1.000
    C14      C        0.57130    0.40080    0.73010    1.000
    H6       H        0.54400    0.43250    0.75410    1.000
    C15      C        0.59700    0.28330    0.69770    1.000
    H7       H        0.58600    0.23640    0.69880    1.000
    C16      C        0.55590    0.33070    0.73280    1.000
    H8       H        0.51780    0.31550    0.75820    1.000
    V3       V        0.24491    0.89102    0.35758    1.000
    O9       O        0.19549    0.98174    0.34852    1.000
    O10      O        0.19107    0.30864    0.36290    1.000
    O11      O        0.25913    0.22206    0.39737    1.000
    O12      O        0.10885    0.95975    0.27398    1.000
    C17      C        0.20470    0.24479    0.36925    1.000
    C18      C        0.14500    0.00048    0.31033    1.000
    C19      C        0.15474    0.19392    0.33926    1.000
    C20      C        0.16960    0.12343    0.34303    1.000
    H9       H        0.20751    0.10811    0.36856    1.000
    C21      C        0.12775    0.07596    0.30861    1.000
    C22      C        0.07130    0.09920    0.26990    1.000
    H10      H        0.04400    0.06750    0.24590    1.000
    C23      C        0.09700    0.21670    0.30230    1.000
    H11      H        0.08600    0.26360    0.30120    1.000
    C24      C        0.05590    0.16930    0.26720    1.000
    H12      H        0.01780    0.18450    0.24180    1.000
    V4       V        0.25509    0.10898    0.85758    1.000
    O13      O        0.30451    0.01826    0.84852    1.000
    O14      O        0.30893    0.69136    0.86290    1.000
    O15      O        0.24087    0.77794    0.89737    1.000
    O16      O        0.39115    0.04025    0.77398    1.000
    C25      C        0.29530    0.75521    0.86925    1.000
    C26      C        0.35500    0.99952    0.81033    1.000
    C27      C        0.34526    0.80608    0.83926    1.000
    C28      C        0.33040    0.87657    0.84303    1.000
    H13      H        0.29249    0.89189    0.86856    1.000
    C29      C        0.37225    0.92404    0.80861    1.000
    C30      C        0.42870    0.90080    0.76990    1.000
    H14      H        0.45600    0.93250    0.74590    1.000
    C31      C        0.40300    0.78330    0.80230    1.000
    H15      H        0.41400    0.73640    0.80120    1.000
    C32      C        0.44410    0.83070    0.76720    1.000
    H16      H        0.48220    0.81550    0.74180    1.000
    V5       V        0.14242    0.75509    0.39102    1.000
    O17      O        0.15148    0.80451    0.48174    1.000
    O18      O        0.13710    0.80893    0.80864    1.000
    O19      O        0.10263    0.74087    0.72206    1.000
    O20      O        0.22602    0.89115    0.45975    1.000
    C33      C        0.13075    0.79530    0.74479    1.000
    C34      C        0.18967    0.85500    0.50048    1.000
    C35      C        0.16074    0.84526    0.69392    1.000
    C36      C        0.15697    0.83040    0.62343    1.000
    H17      H        0.13144    0.79249    0.60811    1.000
    C37      C        0.19139    0.87225    0.57596    1.000
    C38      C        0.23010    0.92870    0.59920    1.000
    H18      H        0.25410    0.95600    0.56750    1.000
    C39      C        0.19770    0.90300    0.71670    1.000
    H19      H        0.19880    0.91400    0.76360    1.000
    C40      C        0.23280    0.94410    0.66930    1.000
    H20      H        0.25820    0.98220    0.68450    1.000
    V6       V        0.64242    0.74491    0.60898    1.000
    O21      O        0.65148    0.69549    0.51826    1.000
    O22      O        0.63710    0.69107    0.19136    1.000
    O23      O        0.60263    0.75913    0.27794    1.000
    O24      O        0.72602    0.60885    0.54025    1.000
    C41      C        0.63075    0.70470    0.25521    1.000
    C42      C        0.68967    0.64500    0.49952    1.000
    C43      C        0.66074    0.65474    0.30608    1.000
    C44      C        0.65697    0.66960    0.37657    1.000
    H21      H        0.63144    0.70751    0.39189    1.000
    C45      C        0.69139    0.62775    0.42404    1.000
    C46      C        0.73010    0.57130    0.40080    1.000
    H22      H        0.75410    0.54400    0.43250    1.000
    C47      C        0.69770    0.59700    0.28330    1.000
    H23      H        0.69880    0.58600    0.23640    1.000
    C48      C        0.73280    0.55590    0.33070    1.000
    H24      H        0.75820    0.51780    0.31550    1.000
    V7       V        0.35758    0.24491    0.89102    1.000
    O25      O        0.34852    0.19549    0.98174    1.000
    O26      O        0.36290    0.19107    0.30864    1.000
    O27      O        0.39737    0.25913    0.22206    1.000
    O28      O        0.27398    0.10885    0.95975    1.000
    C49      C        0.36925    0.20470    0.24479    1.000
    C50      C        0.31033    0.14500    0.00048    1.000
    C51      C        0.33926    0.15474    0.19392    1.000
    C52      C        0.34303    0.16960    0.12343    1.000
    H25      H        0.36856    0.20751    0.10811    1.000
    C53      C        0.30861    0.12775    0.07596    1.000
    C54      C        0.26990    0.07130    0.09920    1.000
    H26      H        0.24590    0.04400    0.06750    1.000
    C55      C        0.30230    0.09700    0.21670    1.000
    H27      H        0.30120    0.08600    0.26360    1.000
    C56      C        0.26720    0.05590    0.16930    1.000
    H28      H        0.24180    0.01780    0.18450    1.000
    V8       V        0.85758    0.25509    0.10898    1.000
    O29      O        0.84852    0.30451    0.01826    1.000
    O30      O        0.86290    0.30893    0.69136    1.000
    O31      O        0.89737    0.24087    0.77794    1.000
    O32      O        0.77398    0.39115    0.04025    1.000
    C57      C        0.86925    0.29530    0.75521    1.000
    C58      C        0.81033    0.35500    0.99952    1.000
    C59      C        0.83926    0.34526    0.80608    1.000
    C60      C        0.84303    0.33040    0.87657    1.000
    H29      H        0.86856    0.29249    0.89189    1.000
    C61      C        0.80861    0.37225    0.92404    1.000
    C62      C        0.76990    0.42870    0.90080    1.000
    H30      H        0.74590    0.45600    0.93250    1.000
    C63      C        0.80230    0.40300    0.78330    1.000
    H31      H        0.80120    0.41400    0.73640    1.000
    C64      C        0.76720    0.44410    0.83070    1.000
    H32      H        0.74180    0.48220    0.81550    1.000
    V9       V        0.39102    0.14242    0.75509    1.000
    O33      O        0.48174    0.15148    0.80451    1.000
    O34      O        0.80864    0.13710    0.80893    1.000
    O35      O        0.72206    0.10263    0.74087    1.000
    O36      O        0.45975    0.22602    0.89115    1.000
    C65      C        0.74479    0.13075    0.79530    1.000
    C66      C        0.50048    0.18967    0.85500    1.000
    C67      C        0.69392    0.16074    0.84526    1.000
    C68      C        0.62343    0.15697    0.83040    1.000
    H33      H        0.60811    0.13144    0.79249    1.000
    C69      C        0.57596    0.19139    0.87225    1.000
    C70      C        0.59920    0.23010    0.92870    1.000
    H34      H        0.56750    0.25410    0.95600    1.000
    C71      C        0.71670    0.19770    0.90300    1.000
    H35      H        0.76360    0.19880    0.91400    1.000
    C72      C        0.66930    0.23280    0.94410    1.000
    H36      H        0.68450    0.25820    0.98220    1.000
    V10      V        0.60898    0.64242    0.74491    1.000
    O37      O        0.51826    0.65148    0.69549    1.000
    O38      O        0.19136    0.63710    0.69107    1.000
    O39      O        0.27794    0.60263    0.75913    1.000
    O40      O        0.54025    0.72602    0.60885    1.000
    C73      C        0.25521    0.63075    0.70470    1.000
    C74      C        0.49952    0.68967    0.64500    1.000
    C75      C        0.30608    0.66074    0.65474    1.000
    C76      C        0.37657    0.65697    0.66960    1.000
    H37      H        0.39189    0.63144    0.70751    1.000
    C77      C        0.42404    0.69139    0.62775    1.000
    C78      C        0.40080    0.73010    0.57130    1.000
    H38      H        0.43250    0.75410    0.54400    1.000
    C79      C        0.28330    0.69770    0.59700    1.000
    H39      H        0.23640    0.69880    0.58600    1.000
    C80      C        0.33070    0.73280    0.55590    1.000
    H40      H        0.31550    0.75820    0.51780    1.000
    V11      V        0.89102    0.35758    0.24491    1.000
    O41      O        0.98174    0.34852    0.19549    1.000
    O42      O        0.30864    0.36290    0.19107    1.000
    O43      O        0.22206    0.39737    0.25913    1.000
    O44      O        0.95975    0.27398    0.10885    1.000
    C81      C        0.24479    0.36925    0.20470    1.000
    C82      C        0.00048    0.31033    0.14500    1.000
    C83      C        0.19392    0.33926    0.15474    1.000
    C84      C        0.12343    0.34303    0.16960    1.000
    H41      H        0.10811    0.36856    0.20751    1.000
    C85      C        0.07596    0.30861    0.12775    1.000
    C86      C        0.09920    0.26990    0.07130    1.000
    H42      H        0.06750    0.24590    0.04400    1.000
    C87      C        0.21670    0.30230    0.09700    1.000
    H43      H        0.26360    0.30120    0.08600    1.000
    C88      C        0.16930    0.26720    0.05590    1.000
    H44      H        0.18450    0.24180    0.01780    1.000
    V12      V        0.10898    0.85758    0.25509    1.000
    O45      O        0.01826    0.84852    0.30451    1.000
    O46      O        0.69136    0.86290    0.30893    1.000
    O47      O        0.77794    0.89737    0.24087    1.000
    O48      O        0.04025    0.77398    0.39115    1.000
    C89      C        0.75521    0.86925    0.29530    1.000
    C90      C        0.99952    0.81033    0.35500    1.000
    C91      C        0.80608    0.83926    0.34526    1.000
    C92      C        0.87657    0.84303    0.33040    1.000
    H45      H        0.89189    0.86856    0.29249    1.000
    C93      C        0.92404    0.80861    0.37225    1.000
    C94      C        0.90080    0.76990    0.42870    1.000
    H46      H        0.93250    0.74590    0.45600    1.000
    C95      C        0.78330    0.80230    0.40300    1.000
    H47      H        0.73640    0.80120    0.41400    1.000
    C96      C        0.83070    0.76720    0.44410    1.000
    H48      H        0.81550    0.74180    0.48220    1.000
    V13      V        0.24491    0.60898    0.85758    1.000
    O49      O        0.19549    0.51826    0.84852    1.000
    O50      O        0.19107    0.19136    0.86290    1.000
    O51      O        0.25913    0.27794    0.89737    1.000
    O52      O        0.10885    0.54025    0.77398    1.000
    C97      C        0.20470    0.25521    0.86925    1.000
    C98      C        0.14500    0.49952    0.81033    1.000
    C99      C        0.15474    0.30608    0.83926    1.000
    C100     C        0.16960    0.37657    0.84303    1.000
    H49      H        0.20751    0.39189    0.86856    1.000
    C101     C        0.12775    0.42404    0.80861    1.000
    C102     C        0.07130    0.40080    0.76990    1.000
    H50      H        0.04400    0.43250    0.74590    1.000
    C103     C        0.09700    0.28330    0.80230    1.000
    H51      H        0.08600    0.23640    0.80120    1.000
    C104     C        0.05590    0.33070    0.76720    1.000
    H52      H        0.01780    0.31550    0.74180    1.000
    V14      V        0.25509    0.39102    0.35758    1.000
    O53      O        0.30451    0.48174    0.34852    1.000
    O54      O        0.30893    0.80864    0.36290    1.000
    O55      O        0.24087    0.72206    0.39737    1.000
    O56      O        0.39115    0.45975    0.27398    1.000
    C105     C        0.29530    0.74479    0.36925    1.000
    C106     C        0.35500    0.50048    0.31033    1.000
    C107     C        0.34526    0.69392    0.33926    1.000
    C108     C        0.33040    0.62343    0.34303    1.000
    H53      H        0.29249    0.60811    0.36856    1.000
    C109     C        0.37225    0.57596    0.30861    1.000
    C110     C        0.42870    0.59920    0.26990    1.000
    H54      H        0.45600    0.56750    0.24590    1.000
    C111     C        0.40300    0.71670    0.30230    1.000
    H55      H        0.41400    0.76360    0.30120    1.000
    C112     C        0.44410    0.66930    0.26720    1.000
    H56      H        0.48220    0.68450    0.24180    1.000
    V15      V        0.75509    0.10898    0.64242    1.000
    O57      O        0.80451    0.01826    0.65148    1.000
    O58      O        0.80893    0.69136    0.63710    1.000
    O59      O        0.74087    0.77794    0.60263    1.000
    O60      O        0.89115    0.04025    0.72602    1.000
    C113     C        0.79530    0.75521    0.63075    1.000
    C114     C        0.85500    0.99952    0.68967    1.000
    C115     C        0.84526    0.80608    0.66074    1.000
    C116     C        0.83040    0.87657    0.65697    1.000
    H57      H        0.79249    0.89189    0.63144    1.000
    C117     C        0.87225    0.92404    0.69139    1.000
    C118     C        0.92870    0.90080    0.73010    1.000
    H58      H        0.95600    0.93250    0.75410    1.000
    C119     C        0.90300    0.78330    0.69770    1.000
    H59      H        0.91400    0.73640    0.69880    1.000
    C120     C        0.94410    0.83070    0.73280    1.000
    H60      H        0.98220    0.81550    0.75820    1.000
    V16      V        0.74491    0.89102    0.14242    1.000
    O61      O        0.69549    0.98174    0.15148    1.000
    O62      O        0.69107    0.30864    0.13710    1.000
    O63      O        0.75913    0.22206    0.10263    1.000
    O64      O        0.60885    0.95975    0.22602    1.000
    C121     C        0.70470    0.24479    0.13075    1.000
    C122     C        0.64500    0.00048    0.18967    1.000
    C123     C        0.65474    0.19392    0.16074    1.000
    C124     C        0.66960    0.12343    0.15697    1.000
    H61      H        0.70751    0.10811    0.13144    1.000
    C125     C        0.62775    0.07596    0.19139    1.000
    C126     C        0.57130    0.09920    0.23010    1.000
    H62      H        0.54400    0.06750    0.25410    1.000
    C127     C        0.59700    0.21670    0.19770    1.000
    H63      H        0.58600    0.26360    0.19880    1.000
    C128     C        0.55590    0.16930    0.23280    1.000
    H64      H        0.51780    0.18450    0.25820    1.000
    V17      V        0.85758    0.24491    0.60898    1.000
    O65      O        0.84852    0.19549    0.51826    1.000
    O66      O        0.86290    0.19107    0.19136    1.000
    O67      O        0.89737    0.25913    0.27794    1.000
    O68      O        0.77398    0.10885    0.54025    1.000
    C129     C        0.86925    0.20470    0.25521    1.000
    C130     C        0.81033    0.14500    0.49952    1.000
    C131     C        0.83926    0.15474    0.30608    1.000
    C132     C        0.84303    0.16960    0.37657    1.000
    H65      H        0.86856    0.20751    0.39189    1.000
    C133     C        0.80861    0.12775    0.42404    1.000
    C134     C        0.76990    0.07130    0.40080    1.000
    H66      H        0.74590    0.04400    0.43250    1.000
    C135     C        0.80230    0.09700    0.28330    1.000
    H67      H        0.80120    0.08600    0.23640    1.000
    C136     C        0.76720    0.05590    0.33070    1.000
    H68      H        0.74180    0.01780    0.31550    1.000
    V18      V        0.35758    0.25509    0.39102    1.000
    O69      O        0.34852    0.30451    0.48174    1.000
    O70      O        0.36290    0.30893    0.80864    1.000
    O71      O        0.39737    0.24087    0.72206    1.000
    O72      O        0.27398    0.39115    0.45975    1.000
    C137     C        0.36925    0.29530    0.74479    1.000
    C138     C        0.31033    0.35500    0.50048    1.000
    C139     C        0.33926    0.34526    0.69392    1.000
    C140     C        0.34303    0.33040    0.62343    1.000
    H69      H        0.36856    0.29249    0.60811    1.000
    C141     C        0.30861    0.37225    0.57596    1.000
    C142     C        0.26990    0.42870    0.59920    1.000
    H70      H        0.24590    0.45600    0.56750    1.000
    C143     C        0.30230    0.40300    0.71670    1.000
    H71      H        0.30120    0.41400    0.76360    1.000
    C144     C        0.26720    0.44410    0.66930    1.000
    H72      H        0.24180    0.48220    0.68450    1.000
    V19      V        0.64242    0.75509    0.10898    1.000
    O73      O        0.65148    0.80451    0.01826    1.000
    O74      O        0.63710    0.80893    0.69136    1.000
    O75      O        0.60263    0.74087    0.77794    1.000
    O76      O        0.72602    0.89115    0.04025    1.000
    C145     C        0.63075    0.79530    0.75521    1.000
    C146     C        0.68967    0.85500    0.99952    1.000
    C147     C        0.66074    0.84526    0.80608    1.000
    C148     C        0.65697    0.83040    0.87657    1.000
    H73      H        0.63144    0.79249    0.89189    1.000
    C149     C        0.69139    0.87225    0.92404    1.000
    C150     C        0.73010    0.92870    0.90080    1.000
    H74      H        0.75410    0.95600    0.93250    1.000
    C151     C        0.69770    0.90300    0.78330    1.000
    H75      H        0.69880    0.91400    0.73640    1.000
    C152     C        0.73280    0.94410    0.83070    1.000
    H76      H        0.75820    0.98220    0.81550    1.000
    V20      V        0.14242    0.74491    0.89102    1.000
    O77      O        0.15148    0.69549    0.98174    1.000
    O78      O        0.13710    0.69107    0.30864    1.000
    O79      O        0.10263    0.75913    0.22206    1.000
    O80      O        0.22602    0.60885    0.95975    1.000
    C153     C        0.13075    0.70470    0.24479    1.000
    C154     C        0.18967    0.64500    0.00048    1.000
    C155     C        0.16074    0.65474    0.19392    1.000
    C156     C        0.15697    0.66960    0.12343    1.000
    H77      H        0.13144    0.70751    0.10811    1.000
    C157     C        0.19139    0.62775    0.07596    1.000
    C158     C        0.23010    0.57130    0.09920    1.000
    H78      H        0.25410    0.54400    0.06750    1.000
    C159     C        0.19770    0.59700    0.21670    1.000
    H79      H        0.19880    0.58600    0.26360    1.000
    C160     C        0.23280    0.55590    0.16930    1.000
    H80      H        0.25820    0.51780    0.18450    1.000
    V21      V        0.60898    0.85758    0.24491    1.000
    O81      O        0.51826    0.84852    0.19549    1.000
    O82      O        0.19136    0.86290    0.19107    1.000
    O83      O        0.27794    0.89737    0.25913    1.000
    O84      O        0.54025    0.77398    0.10885    1.000
    C161     C        0.25521    0.86925    0.20470    1.000
    C162     C        0.49952    0.81033    0.14500    1.000
    C163     C        0.30608    0.83926    0.15474    1.000
    C164     C        0.37657    0.84303    0.16960    1.000
    H81      H        0.39189    0.86856    0.20751    1.000
    C165     C        0.42404    0.80861    0.12775    1.000
    C166     C        0.40080    0.76990    0.07130    1.000
    H82      H        0.43250    0.74590    0.04400    1.000
    C167     C        0.28330    0.80230    0.09700    1.000
    H83      H        0.23640    0.80120    0.08600    1.000
    C168     C        0.33070    0.76720    0.05590    1.000
    H84      H        0.31550    0.74180    0.01780    1.000
    V22      V        0.39102    0.35758    0.25509    1.000
    O85      O        0.48174    0.34852    0.30451    1.000
    O86      O        0.80864    0.36290    0.30893    1.000
    O87      O        0.72206    0.39737    0.24087    1.000
    O88      O        0.45975    0.27398    0.39115    1.000
    C169     C        0.74479    0.36925    0.29530    1.000
    C170     C        0.50048    0.31033    0.35500    1.000
    C171     C        0.69392    0.33926    0.34526    1.000
    C172     C        0.62343    0.34303    0.33040    1.000
    H85      H        0.60811    0.36856    0.29249    1.000
    C173     C        0.57596    0.30861    0.37225    1.000
    C174     C        0.59920    0.26990    0.42870    1.000
    H86      H        0.56750    0.24590    0.45600    1.000
    C175     C        0.71670    0.30230    0.40300    1.000
    H87      H        0.76360    0.30120    0.41400    1.000
    C176     C        0.66930    0.26720    0.44410    1.000
    H88      H        0.68450    0.24180    0.48220    1.000
    V23      V        0.10898    0.64242    0.75509    1.000
    O89      O        0.01826    0.65148    0.80451    1.000
    O90      O        0.69136    0.63710    0.80893    1.000
    O91      O        0.77794    0.60263    0.74087    1.000
    O92      O        0.04025    0.72602    0.89115    1.000
    C177     C        0.75521    0.63075    0.79530    1.000
    C178     C        0.99952    0.68967    0.85500    1.000
    C179     C        0.80608    0.66074    0.84526    1.000
    C180     C        0.87657    0.65697    0.83040    1.000
    H89      H        0.89189    0.63144    0.79249    1.000
    C181     C        0.92404    0.69139    0.87225    1.000
    C182     C        0.90080    0.73010    0.92870    1.000
    H90      H        0.93250    0.75410    0.95600    1.000
    C183     C        0.78330    0.69770    0.90300    1.000
    H91      H        0.73640    0.69880    0.91400    1.000
    C184     C        0.83070    0.73280    0.94410    1.000
    H92      H        0.81550    0.75820    0.98220    1.000
    V24      V        0.89102    0.14242    0.74491    1.000
    O93      O        0.98174    0.15148    0.69549    1.000
    O94      O        0.30864    0.13710    0.69107    1.000
    O95      O        0.22206    0.10263    0.75913    1.000
    O96      O        0.95975    0.22602    0.60885    1.000
    C185     C        0.24479    0.13075    0.70470    1.000
    C186     C        0.00048    0.18967    0.64500    1.000
    C187     C        0.19392    0.16074    0.65474    1.000
    C188     C        0.12343    0.15697    0.66960    1.000
    H93      H        0.10811    0.13144    0.70751    1.000
    C189     C        0.07596    0.19139    0.62775    1.000
    C190     C        0.09920    0.23010    0.57130    1.000
    H94      H        0.06750    0.25410    0.54400    1.000
    C191     C        0.21670    0.19770    0.59700    1.000
    H95      H        0.26360    0.19880    0.58600    1.000
    C192     C        0.16930    0.23280    0.55590    1.000
    H96      H        0.18450    0.25820    0.51780    1.000
    O97      O        0.83494    0.33494    0.16506    1.000
    O98      O        0.66506    0.66506    0.66506    1.000
    O99      O        0.16506    0.83494    0.33494    1.000
    O100     O        0.33494    0.16506    0.83494    1.000
    O101     O        0.16506    0.66506    0.83494    1.000
    O102     O        0.33494    0.33494    0.33494    1.000
    O103     O        0.83494    0.16506    0.66506    1.000
    O104     O        0.66506    0.83494    0.16506    1.000
