# CIF file generated by openbabel 3.1.0, see https://openbabel.org
data_I
_chemical_name_common 'image0'
_cell_length_a 30.84
_cell_length_b 6.574
_cell_length_c 7.704
_cell_angle_alpha 90
_cell_angle_beta 101.557
_cell_angle_gamma 90
_space_group_name_H-M_alt 'P 1'
_space_group_name_Hall 'P 1'
loop_
    _symmetry_equiv_pos_as_xyz
    x,y,z
loop_
    _atom_site_label
    _atom_site_type_symbol
    _atom_site_fract_x
    _atom_site_fract_y
    _atom_site_fract_z
    _atom_site_occupancy
    Ni1      Ni       0.27864    0.26860    0.27578    1.000
    O1       O        0.30640    0.48950    0.45890    1.000
    O2       O        0.30780    0.40950    0.09160    1.000
    C1       C        0.37870    0.79390    0.33630    1.000
    H1       H        0.37910    0.65960    0.29110    1.000
    O3       O        0.24990    0.54690    0.91020    1.000
    O4       O        0.24550    0.62360    0.52910    1.000
    C2       C        0.37360    0.17360    0.45780    1.000
    H2       H        0.37200    0.30780    0.50170    1.000
    C3       C        0.45990    0.76900    0.46790    1.000
    N1       N        0.33640    0.09670    0.35090    1.000
    C4       C        0.33970    0.90760    0.30090    1.000
    H3       H        0.31380    0.84370    0.23620    1.000
    C5       C        0.41630    0.87620    0.43640    1.000
    C6       C        0.41260    0.07320    0.50610    1.000
    H4       H        0.43690    0.13370    0.58480    1.000
    N2       N        0.28450    0.89100    0.76880    1.000
    H5       H        0.28510    0.00850    0.70430    1.000
    H6       H        0.29430    0.91980    0.88700    1.000
    C7       C        0.31310    0.72500    0.70760    1.000
    H7       H        0.33950    0.78790    0.67150    1.000
    C8       C        0.28610    0.60040    0.55260    1.000
    C9       C        0.46180    0.56140    0.47300    1.000
    H8       H        0.43470    0.48830    0.45660    1.000
    C10      C        0.29020    0.51560    0.96300    1.000
    C11      C        0.32730    0.58600    0.86070    1.000
    H9       H        0.35110    0.65430    0.94650    1.000
    H10      H        0.34040    0.46310    0.81750    1.000
    Ni2      Ni       0.77864    0.76860    0.27578    1.000
    O5       O        0.80640    0.98950    0.45890    1.000
    O6       O        0.80780    0.90950    0.09160    1.000
    C12      C        0.87870    0.29390    0.33630    1.000
    H11      H        0.87910    0.15960    0.29110    1.000
    O7       O        0.74990    0.04690    0.91020    1.000
    O8       O        0.74550    0.12360    0.52910    1.000
    C13      C        0.87360    0.67360    0.45780    1.000
    H12      H        0.87200    0.80780    0.50170    1.000
    C14      C        0.95990    0.26900    0.46790    1.000
    N3       N        0.83640    0.59670    0.35090    1.000
    C15      C        0.83970    0.40760    0.30090    1.000
    H13      H        0.81380    0.34370    0.23620    1.000
    C16      C        0.91630    0.37620    0.43640    1.000
    C17      C        0.91260    0.57320    0.50610    1.000
    H14      H        0.93690    0.63370    0.58480    1.000
    N4       N        0.78450    0.39100    0.76880    1.000
    H15      H        0.78510    0.50850    0.70430    1.000
    H16      H        0.79430    0.41980    0.88700    1.000
    C18      C        0.81310    0.22500    0.70760    1.000
    H17      H        0.83950    0.28790    0.67150    1.000
    C19      C        0.78610    0.10040    0.55260    1.000
    C20      C        0.96180    0.06140    0.47300    1.000
    H18      H        0.93470    0.98830    0.45660    1.000
    C21      C        0.79020    0.01560    0.96300    1.000
    C22      C        0.82730    0.08600    0.86070    1.000
    H19      H        0.85110    0.15430    0.94650    1.000
    H20      H        0.84040    0.96310    0.81750    1.000
    Ni3      Ni       0.72136    0.26860    0.72422    1.000
    O9       O        0.69360    0.48950    0.54110    1.000
    O10      O        0.69220    0.40950    0.90840    1.000
    C23      C        0.62130    0.79390    0.66370    1.000
    H21      H        0.62090    0.65960    0.70890    1.000
    O11      O        0.75010    0.54690    0.08980    1.000
    O12      O        0.75450    0.62360    0.47090    1.000
    C24      C        0.62640    0.17360    0.54220    1.000
    H22      H        0.62800    0.30780    0.49830    1.000
    C25      C        0.54010    0.76900    0.53210    1.000
    N5       N        0.66360    0.09670    0.64910    1.000
    C26      C        0.66030    0.90760    0.69910    1.000
    H23      H        0.68620    0.84370    0.76380    1.000
    C27      C        0.58370    0.87620    0.56360    1.000
    C28      C        0.58740    0.07320    0.49390    1.000
    H24      H        0.56310    0.13370    0.41520    1.000
    N6       N        0.71550    0.89100    0.23120    1.000
    H25      H        0.71490    0.00850    0.29570    1.000
    H26      H        0.70570    0.91980    0.11300    1.000
    C29      C        0.68690    0.72500    0.29240    1.000
    H27      H        0.66050    0.78790    0.32850    1.000
    C30      C        0.71390    0.60040    0.44740    1.000
    C31      C        0.53820    0.56140    0.52700    1.000
    H28      H        0.56530    0.48830    0.54340    1.000
    C32      C        0.70980    0.51560    0.03700    1.000
    C33      C        0.67270    0.58600    0.13930    1.000
    H29      H        0.64890    0.65430    0.05350    1.000
    H30      H        0.65960    0.46310    0.18250    1.000
    Ni4      Ni       0.22136    0.76860    0.72422    1.000
    O13      O        0.19360    0.98950    0.54110    1.000
    O14      O        0.19220    0.90950    0.90840    1.000
    C34      C        0.12130    0.29390    0.66370    1.000
    H31      H        0.12090    0.15960    0.70890    1.000
    O15      O        0.25010    0.04690    0.08980    1.000
    O16      O        0.25450    0.12360    0.47090    1.000
    C35      C        0.12640    0.67360    0.54220    1.000
    H32      H        0.12800    0.80780    0.49830    1.000
    C36      C        0.04010    0.26900    0.53210    1.000
    N7       N        0.16360    0.59670    0.64910    1.000
    C37      C        0.16030    0.40760    0.69910    1.000
    H33      H        0.18620    0.34370    0.76380    1.000
    C38      C        0.08370    0.37620    0.56360    1.000
    C39      C        0.08740    0.57320    0.49390    1.000
    H34      H        0.06310    0.63370    0.41520    1.000
    N8       N        0.21550    0.39100    0.23120    1.000
    H35      H        0.21490    0.50850    0.29570    1.000
    H36      H        0.20570    0.41980    0.11300    1.000
    C40      C        0.18690    0.22500    0.29240    1.000
    H37      H        0.16050    0.28790    0.32850    1.000
    C41      C        0.21390    0.10040    0.44740    1.000
    C42      C        0.03820    0.06140    0.52700    1.000
    H38      H        0.06530    0.98830    0.54340    1.000
    C43      C        0.20980    0.01560    0.03700    1.000
    C44      C        0.17270    0.08600    0.13930    1.000
    H39      H        0.14890    0.15430    0.05350    1.000
    H40      H        0.15960    0.96310    0.18250    1.000
    N9       N        0.50000    0.45400    0.50000    1.000
    C45      C        0.50000    0.87500    0.50000    1.000
    H41      H        0.50000    0.01960    0.50000    1.000
    N10      N        0.00000    0.95400    0.50000    1.000
    C46      C        0.00000    0.37500    0.50000    1.000
    H42      H        0.00000    0.51960    0.50000    1.000
