# CIF file generated by openbabel 3.1.0, see https://openbabel.org
data_I
_chemical_name_common 'image0'
_cell_length_a 21.5609
_cell_length_b 21.5609
_cell_length_c 11.3677
_cell_angle_alpha 90
_cell_angle_beta 90
_cell_angle_gamma 90
_space_group_name_H-M_alt 'P 1'
_space_group_name_Hall 'P 1'
loop_
    _symmetry_equiv_pos_as_xyz
    x,y,z
loop_
    _atom_site_label
    _atom_site_type_symbol
    _atom_site_fract_x
    _atom_site_fract_y
    _atom_site_fract_z
    _atom_site_occupancy
    Mo1      Mo       0.38398    0.46513    0.21632    1.000
    Mo2      Mo       0.45187    0.35886    0.14452    1.000
    P1       P        0.29071    0.43888    0.44356    1.000
    P2       P        0.26492    0.54434    0.27797    1.000
    S1       S        0.46571    0.41754    0.31401    1.000
    S2       S        0.35522    0.39140    0.07771    1.000
    O1       O        0.42432    0.51631    0.13359    1.000
    O2       O        0.37262    0.51664    0.36845    1.000
    O3       O        0.29780    0.50710    0.18088    1.000
    O4       O        0.31483    0.40490    0.33481    1.000
    O5       O        0.49800    0.39625    0.04839    1.000
    O6       O        0.22003    0.43246    0.45787    1.000
    O7       O        0.19699    0.52336    0.28651    1.000
    O8       O        0.39388    0.29751    0.28164    1.000
    H1       H        0.36260    0.31550    0.30100    1.000
    H2       H        0.38700    0.26720    0.26300    1.000
    O9       O        0.32264    0.42104    0.55676    1.000
    O10      O        0.27030    0.61319    0.26328    1.000
    C1       C        0.30951    0.51959    0.40761    1.000
    C2       C        0.30867    0.56493    0.51157    1.000
    H3       H        0.33590    0.54850    0.57450    1.000
    H4       H        0.32620    0.60510    0.48540    1.000
    N1       N        0.24675    0.57580    0.56070    1.000
    C3       C        0.20267    0.61709    0.51987    1.000
    H5       H        0.20610    0.64310    0.45270    1.000
    C4       C        0.15366    0.61342    0.59398    1.000
    H6       H        0.11620    0.63650    0.58920    1.000
    C5       C        0.22471    0.54835    0.65585    1.000
    H7       H        0.24570    0.51810    0.70160    1.000
    N2       N        0.16835    0.57019    0.67668    1.000
    H8       H        0.14410    0.55850    0.73500    1.000
    Rb1      Rb       0.56515    0.51654    0.13187    1.000
    Rb2      Rb       0.46899    0.28601    0.50311    1.000
    Mo3      Mo       0.11602    0.03487    0.21632    1.000
    Mo4      Mo       0.04813    0.14114    0.14452    1.000
    P3       P        0.20929    0.06112    0.44356    1.000
    P4       P        0.23508    0.95566    0.27797    1.000
    S3       S        0.03429    0.08246    0.31401    1.000
    S4       S        0.14478    0.10860    0.07771    1.000
    O11      O        0.07568    0.98369    0.13359    1.000
    O12      O        0.12738    0.98336    0.36845    1.000
    O13      O        0.20220    0.99290    0.18088    1.000
    O14      O        0.18517    0.09510    0.33481    1.000
    O15      O        0.00200    0.10375    0.04839    1.000
    O16      O        0.27997    0.06754    0.45787    1.000
    O17      O        0.30301    0.97664    0.28651    1.000
    O18      O        0.10612    0.20249    0.28164    1.000
    H9       H        0.13740    0.18450    0.30100    1.000
    H10      H        0.11300    0.23280    0.26300    1.000
    O19      O        0.17736    0.07896    0.55676    1.000
    O20      O        0.22970    0.88681    0.26328    1.000
    C6       C        0.19049    0.98041    0.40761    1.000
    C7       C        0.19133    0.93507    0.51157    1.000
    H11      H        0.16410    0.95150    0.57450    1.000
    H12      H        0.17380    0.89490    0.48540    1.000
    N3       N        0.25325    0.92420    0.56070    1.000
    C8       C        0.29733    0.88291    0.51987    1.000
    H13      H        0.29390    0.85690    0.45270    1.000
    C9       C        0.34634    0.88658    0.59398    1.000
    H14      H        0.38380    0.86350    0.58920    1.000
    C10      C        0.27529    0.95165    0.65585    1.000
    H15      H        0.25430    0.98190    0.70160    1.000
    N4       N        0.33165    0.92981    0.67668    1.000
    H16      H        0.35590    0.94150    0.73500    1.000
    Rb3      Rb       0.93485    0.98346    0.13187    1.000
    Rb4      Rb       0.03101    0.21399    0.50311    1.000
    Mo5      Mo       0.53487    0.88398    0.71632    1.000
    Mo6      Mo       0.64114    0.95187    0.64452    1.000
    P5       P        0.56112    0.79071    0.94356    1.000
    P6       P        0.45566    0.76492    0.77797    1.000
    S5       S        0.58246    0.96571    0.81401    1.000
    S6       S        0.60860    0.85522    0.57771    1.000
    O21      O        0.48369    0.92432    0.63359    1.000
    O22      O        0.48336    0.87262    0.86845    1.000
    O23      O        0.49290    0.79780    0.68088    1.000
    O24      O        0.59510    0.81483    0.83481    1.000
    O25      O        0.60375    0.99800    0.54839    1.000
    O26      O        0.56754    0.72003    0.95787    1.000
    O27      O        0.47664    0.69699    0.78651    1.000
    O28      O        0.70249    0.89388    0.78164    1.000
    H17      H        0.68450    0.86260    0.80100    1.000
    H18      H        0.73280    0.88700    0.76300    1.000
    O29      O        0.57896    0.82264    0.05676    1.000
    O30      O        0.38681    0.77030    0.76328    1.000
    C11      C        0.48041    0.80951    0.90761    1.000
    C12      C        0.43507    0.80867    0.01157    1.000
    H19      H        0.45150    0.83590    0.07450    1.000
    H20      H        0.39490    0.82620    0.98540    1.000
    N5       N        0.42420    0.74675    0.06070    1.000
    C13      C        0.38291    0.70267    0.01987    1.000
    H21      H        0.35690    0.70610    0.95270    1.000
    C14      C        0.38658    0.65366    0.09398    1.000
    H22      H        0.36350    0.61620    0.08920    1.000
    C15      C        0.45165    0.72471    0.15585    1.000
    H23      H        0.48190    0.74570    0.20160    1.000
    N6       N        0.42981    0.66835    0.17668    1.000
    H24      H        0.44150    0.64410    0.23500    1.000
    Rb5      Rb       0.48346    0.06515    0.63187    1.000
    Rb6      Rb       0.71399    0.96899    0.00311    1.000
    Mo7      Mo       0.96513    0.61602    0.71632    1.000
    Mo8      Mo       0.85886    0.54813    0.64452    1.000
    P7       P        0.93888    0.70929    0.94356    1.000
    P8       P        0.04434    0.73508    0.77797    1.000
    S7       S        0.91754    0.53429    0.81401    1.000
    S8       S        0.89140    0.64478    0.57771    1.000
    O31      O        0.01631    0.57568    0.63359    1.000
    O32      O        0.01664    0.62738    0.86845    1.000
    O33      O        0.00710    0.70220    0.68088    1.000
    O34      O        0.90490    0.68517    0.83481    1.000
    O35      O        0.89625    0.50200    0.54839    1.000
    O36      O        0.93246    0.77997    0.95787    1.000
    O37      O        0.02336    0.80301    0.78651    1.000
    O38      O        0.79751    0.60612    0.78164    1.000
    H25      H        0.81550    0.63740    0.80100    1.000
    H26      H        0.76720    0.61300    0.76300    1.000
    O39      O        0.92104    0.67736    0.05676    1.000
    O40      O        0.11319    0.72970    0.76328    1.000
    C16      C        0.01959    0.69049    0.90761    1.000
    C17      C        0.06493    0.69133    0.01157    1.000
    H27      H        0.04850    0.66410    0.07450    1.000
    H28      H        0.10510    0.67380    0.98540    1.000
    N7       N        0.07580    0.75325    0.06070    1.000
    C18      C        0.11709    0.79733    0.01987    1.000
    H29      H        0.14310    0.79390    0.95270    1.000
    C19      C        0.11342    0.84634    0.09398    1.000
    H30      H        0.13650    0.88380    0.08920    1.000
    C20      C        0.04835    0.77529    0.15585    1.000
    H31      H        0.01810    0.75430    0.20160    1.000
    N8       N        0.07019    0.83165    0.17668    1.000
    H32      H        0.05850    0.85590    0.23500    1.000
    Rb7      Rb       0.01654    0.43485    0.63187    1.000
    Rb8      Rb       0.78601    0.53101    0.00311    1.000
    Mo9      Mo       0.61602    0.53487    0.78368    1.000
    Mo10     Mo       0.54813    0.64114    0.85548    1.000
    P9       P        0.70929    0.56112    0.55644    1.000
    P10      P        0.73508    0.45566    0.72203    1.000
    S9       S        0.53429    0.58246    0.68599    1.000
    S10      S        0.64478    0.60860    0.92229    1.000
    O41      O        0.57568    0.48369    0.86641    1.000
    O42      O        0.62738    0.48336    0.63155    1.000
    O43      O        0.70220    0.49290    0.81912    1.000
    O44      O        0.68517    0.59510    0.66519    1.000
    O45      O        0.50200    0.60375    0.95161    1.000
    O46      O        0.77997    0.56754    0.54213    1.000
    O47      O        0.80301    0.47664    0.71349    1.000
    O48      O        0.60612    0.70249    0.71836    1.000
    H33      H        0.63740    0.68450    0.69900    1.000
    H34      H        0.61300    0.73280    0.73700    1.000
    O49      O        0.67736    0.57896    0.44324    1.000
    O50      O        0.72970    0.38681    0.73672    1.000
    C21      C        0.69049    0.48041    0.59239    1.000
    C22      C        0.69133    0.43507    0.48843    1.000
    H35      H        0.66410    0.45150    0.42550    1.000
    H36      H        0.67380    0.39490    0.51460    1.000
    N9       N        0.75325    0.42420    0.43930    1.000
    C23      C        0.79733    0.38291    0.48013    1.000
    H37      H        0.79390    0.35690    0.54730    1.000
    C24      C        0.84634    0.38658    0.40602    1.000
    H38      H        0.88380    0.36350    0.41080    1.000
    C25      C        0.77529    0.45165    0.34415    1.000
    H39      H        0.75430    0.48190    0.29840    1.000
    N10      N        0.83165    0.42981    0.32332    1.000
    H40      H        0.85590    0.44150    0.26500    1.000
    Rb9      Rb       0.43485    0.48346    0.86813    1.000
    Rb10     Rb       0.53101    0.71399    0.49689    1.000
    Mo11     Mo       0.88398    0.96513    0.78368    1.000
    Mo12     Mo       0.95187    0.85886    0.85548    1.000
    P11      P        0.79071    0.93888    0.55644    1.000
    P12      P        0.76492    0.04434    0.72203    1.000
    S11      S        0.96571    0.91754    0.68599    1.000
    S12      S        0.85522    0.89139    0.92229    1.000
    O51      O        0.92432    0.01631    0.86641    1.000
    O52      O        0.87262    0.01664    0.63155    1.000
    O53      O        0.79780    0.00710    0.81912    1.000
    O54      O        0.81483    0.90490    0.66519    1.000
    O55      O        0.99800    0.89625    0.95161    1.000
    O56      O        0.72003    0.93246    0.54213    1.000
    O57      O        0.69699    0.02336    0.71349    1.000
    O58      O        0.89388    0.79751    0.71836    1.000
    H41      H        0.86260    0.81550    0.69900    1.000
    H42      H        0.88700    0.76720    0.73700    1.000
    O59      O        0.82264    0.92104    0.44324    1.000
    O60      O        0.77030    0.11319    0.73672    1.000
    C26      C        0.80951    0.01959    0.59239    1.000
    C27      C        0.80867    0.06493    0.48843    1.000
    H43      H        0.83590    0.04850    0.42550    1.000
    H44      H        0.82620    0.10510    0.51460    1.000
    N11      N        0.74675    0.07580    0.43930    1.000
    C28      C        0.70267    0.11709    0.48013    1.000
    H45      H        0.70610    0.14310    0.54730    1.000
    C29      C        0.65366    0.11342    0.40602    1.000
    H46      H        0.61620    0.13650    0.41080    1.000
    C30      C        0.72471    0.04835    0.34415    1.000
    H47      H        0.74570    0.01810    0.29840    1.000
    N12      N        0.66835    0.07019    0.32332    1.000
    H48      H        0.64410    0.05850    0.26500    1.000
    Rb11     Rb       0.06515    0.01654    0.86813    1.000
    Rb12     Rb       0.96899    0.78601    0.49689    1.000
    Mo13     Mo       0.46513    0.11602    0.28368    1.000
    Mo14     Mo       0.35886    0.04813    0.35548    1.000
    P13      P        0.43888    0.20929    0.05644    1.000
    P14      P        0.54434    0.23508    0.22203    1.000
    S13      S        0.41754    0.03429    0.18599    1.000
    S14      S        0.39140    0.14478    0.42229    1.000
    O61      O        0.51631    0.07568    0.36641    1.000
    O62      O        0.51664    0.12738    0.13155    1.000
    O63      O        0.50710    0.20220    0.31912    1.000
    O64      O        0.40490    0.18517    0.16519    1.000
    O65      O        0.39625    0.00200    0.45161    1.000
    O66      O        0.43246    0.27997    0.04213    1.000
    O67      O        0.52336    0.30301    0.21349    1.000
    O68      O        0.29751    0.10612    0.21836    1.000
    H49      H        0.31550    0.13740    0.19900    1.000
    H50      H        0.26720    0.11300    0.23700    1.000
    O69      O        0.42104    0.17736    0.94324    1.000
    O70      O        0.61319    0.22970    0.23672    1.000
    C31      C        0.51959    0.19049    0.09239    1.000
    C32      C        0.56493    0.19133    0.98843    1.000
    H51      H        0.54850    0.16410    0.92550    1.000
    H52      H        0.60510    0.17380    0.01460    1.000
    N13      N        0.57580    0.25325    0.93930    1.000
    C33      C        0.61709    0.29733    0.98013    1.000
    H53      H        0.64310    0.29390    0.04730    1.000
    C34      C        0.61342    0.34634    0.90602    1.000
    H54      H        0.63650    0.38380    0.91080    1.000
    C35      C        0.54835    0.27529    0.84415    1.000
    H55      H        0.51810    0.25430    0.79840    1.000
    N14      N        0.57019    0.33165    0.82332    1.000
    H56      H        0.55850    0.35590    0.76500    1.000
    Rb13     Rb       0.51654    0.93485    0.36813    1.000
    Rb14     Rb       0.28601    0.03101    0.99689    1.000
    Mo15     Mo       0.03487    0.38398    0.28368    1.000
    Mo16     Mo       0.14114    0.45187    0.35548    1.000
    P15      P        0.06112    0.29071    0.05644    1.000
    P16      P        0.95566    0.26492    0.22203    1.000
    S15      S        0.08246    0.46571    0.18599    1.000
    S16      S        0.10860    0.35522    0.42229    1.000
    O71      O        0.98369    0.42432    0.36641    1.000
    O72      O        0.98336    0.37262    0.13155    1.000
    O73      O        0.99290    0.29780    0.31912    1.000
    O74      O        0.09510    0.31483    0.16519    1.000
    O75      O        0.10375    0.49800    0.45161    1.000
    O76      O        0.06754    0.22003    0.04213    1.000
    O77      O        0.97664    0.19699    0.21349    1.000
    O78      O        0.20249    0.39388    0.21836    1.000
    H57      H        0.18450    0.36260    0.19900    1.000
    H58      H        0.23280    0.38700    0.23700    1.000
    O79      O        0.07896    0.32264    0.94324    1.000
    O80      O        0.88681    0.27030    0.23672    1.000
    C36      C        0.98041    0.30951    0.09239    1.000
    C37      C        0.93507    0.30867    0.98843    1.000
    H59      H        0.95150    0.33590    0.92550    1.000
    H60      H        0.89490    0.32620    0.01460    1.000
    N15      N        0.92420    0.24675    0.93930    1.000
    C38      C        0.88291    0.20267    0.98013    1.000
    H61      H        0.85690    0.20610    0.04730    1.000
    C39      C        0.88658    0.15366    0.90602    1.000
    H62      H        0.86350    0.11620    0.91080    1.000
    C40      C        0.95165    0.22471    0.84415    1.000
    H63      H        0.98190    0.24570    0.79840    1.000
    N16      N        0.92981    0.16835    0.82332    1.000
    H64      H        0.94150    0.14410    0.76500    1.000
    Rb15     Rb       0.98346    0.56515    0.36813    1.000
    Rb16     Rb       0.21399    0.46899    0.99689    1.000
