# CIF file generated by openbabel 3.1.0, see https://openbabel.org
data_I
_chemical_name_common 'FAKMAH_clean'
_cell_length_a 12.8814
_cell_length_b 12.8814
_cell_length_c 22.0591
_cell_angle_alpha 90
_cell_angle_beta 90
_cell_angle_gamma 120
_space_group_name_H-M_alt 'P 1'
_space_group_name_Hall 'P 1'
loop_
    _symmetry_equiv_pos_as_xyz
    x,y,z
loop_
    _atom_site_label
    _atom_site_type_symbol
    _atom_site_fract_x
    _atom_site_fract_y
    _atom_site_fract_z
    _atom_site_occupancy
    Mn1      Mn       0.33333    0.66666    0.50000    1.000
    Mn2      Mn       0.66667    0.33334    0.00000    1.000
    Mn3      Mn       0.66667    0.33334    0.50000    1.000
    Mn4      Mn       0.33333    0.66666    0.00000    1.000
    H1       H        0.52470    0.18080    0.30280    1.000
    H2       H        0.65610    0.47530    0.30280    1.000
    H3       H        0.81920    0.34390    0.30280    1.000
    H4       H        0.47530    0.81920    0.80280    1.000
    H5       H        0.34390    0.52470    0.80280    1.000
    H6       H        0.18080    0.65610    0.80280    1.000
    H7       H        0.34390    0.81920    0.19720    1.000
    H8       H        0.18080    0.52470    0.19720    1.000
    H9       H        0.47530    0.65610    0.19720    1.000
    H10      H        0.65610    0.18080    0.69720    1.000
    H11      H        0.81920    0.47530    0.69720    1.000
    H12      H        0.52470    0.34390    0.69720    1.000
    H13      H        0.47530    0.81920    0.69720    1.000
    H14      H        0.34390    0.52470    0.69720    1.000
    H15      H        0.18080    0.65610    0.69720    1.000
    H16      H        0.52470    0.18080    0.19720    1.000
    H17      H        0.65610    0.47530    0.19720    1.000
    H18      H        0.81920    0.34390    0.19720    1.000
    H19      H        0.65610    0.18080    0.80280    1.000
    H20      H        0.81920    0.47530    0.80280    1.000
    H21      H        0.52470    0.34390    0.80280    1.000
    H22      H        0.34390    0.81920    0.30280    1.000
    H23      H        0.18080    0.52470    0.30280    1.000
    H24      H        0.47530    0.65610    0.30280    1.000
    C1       C        0.37480    0.89250    0.41417    1.000
    C2       C        0.48700    0.10670    0.28165    1.000
    C3       C        0.51770    0.62520    0.41417    1.000
    C4       C        0.61970    0.51300    0.28165    1.000
    C5       C        0.10750    0.48230    0.41417    1.000
    C6       C        0.89330    0.38030    0.28165    1.000
    C7       C        0.62520    0.10750    0.91417    1.000
    C8       C        0.51300    0.89330    0.78165    1.000
    C9       C        0.48230    0.37480    0.91417    1.000
    C10      C        0.38030    0.48700    0.78165    1.000
    C11      C        0.89250    0.51770    0.91417    1.000
    C12      C        0.10670    0.61970    0.78165    1.000
    C13      C        0.48230    0.10750    0.08583    1.000
    C14      C        0.38030    0.89330    0.21835    1.000
    C15      C        0.89250    0.37480    0.08583    1.000
    C16      C        0.10670    0.48700    0.21835    1.000
    C17      C        0.62520    0.51770    0.08583    1.000
    C18      C        0.51300    0.61970    0.21835    1.000
    C19      C        0.51770    0.89250    0.58583    1.000
    C20      C        0.61970    0.10670    0.71835    1.000
    C21      C        0.10750    0.62520    0.58583    1.000
    C22      C        0.89330    0.51300    0.71835    1.000
    C23      C        0.37480    0.48230    0.58583    1.000
    C24      C        0.48700    0.38030    0.71835    1.000
    C25      C        0.62520    0.10750    0.58583    1.000
    C26      C        0.51300    0.89330    0.71835    1.000
    C27      C        0.48230    0.37480    0.58583    1.000
    C28      C        0.38030    0.48700    0.71835    1.000
    C29      C        0.89250    0.51770    0.58583    1.000
    C30      C        0.10670    0.61970    0.71835    1.000
    C31      C        0.37480    0.89250    0.08583    1.000
    C32      C        0.48700    0.10670    0.21835    1.000
    C33      C        0.51770    0.62520    0.08583    1.000
    C34      C        0.61970    0.51300    0.21835    1.000
    C35      C        0.10750    0.48230    0.08583    1.000
    C36      C        0.89330    0.38030    0.21835    1.000
    C37      C        0.51770    0.89250    0.91417    1.000
    C38      C        0.61970    0.10670    0.78165    1.000
    C39      C        0.10750    0.62520    0.91417    1.000
    C40      C        0.89330    0.51300    0.78165    1.000
    C41      C        0.37480    0.48230    0.91417    1.000
    C42      C        0.48700    0.38030    0.78165    1.000
    C43      C        0.48230    0.10750    0.41417    1.000
    C44      C        0.38030    0.89330    0.28165    1.000
    C45      C        0.89250    0.37480    0.41417    1.000
    C46      C        0.10670    0.48700    0.28165    1.000
    C47      C        0.62520    0.51770    0.41417    1.000
    C48      C        0.51300    0.61970    0.28165    1.000
    C49      C        0.43260    0.00000    0.31412    1.000
    C50      C        0.42890    0.00000    0.38070    1.000
    C51      C        0.56740    0.56740    0.31412    1.000
    C52      C        0.57110    0.57110    0.38070    1.000
    C53      C        0.00000    0.43260    0.31412    1.000
    C54      C        0.00000    0.42890    0.38070    1.000
    C55      C        0.56740    0.00000    0.81412    1.000
    C56      C        0.57110    0.00000    0.88070    1.000
    C57      C        0.43260    0.43260    0.81412    1.000
    C58      C        0.42890    0.42890    0.88070    1.000
    C59      C        0.00000    0.56740    0.81412    1.000
    C60      C        0.00000    0.57110    0.88070    1.000
    C61      C        0.43260    0.00000    0.18588    1.000
    C62      C        0.42890    0.00000    0.11930    1.000
    C63      C        0.00000    0.43260    0.18588    1.000
    C64      C        0.00000    0.42890    0.11930    1.000
    C65      C        0.56740    0.56740    0.18588    1.000
    C66      C        0.57110    0.57110    0.11930    1.000
    C67      C        0.56740    0.00000    0.68588    1.000
    C68      C        0.57110    0.00000    0.61930    1.000
    C69      C        0.00000    0.56740    0.68588    1.000
    C70      C        0.00000    0.57110    0.61930    1.000
    C71      C        0.43260    0.43260    0.68588    1.000
    C72      C        0.42890    0.42890    0.61930    1.000
    N1       N        0.33400    0.80700    0.44176    1.000
    N2       N        0.47300    0.66600    0.44176    1.000
    N3       N        0.19300    0.52700    0.44176    1.000
    N4       N        0.66600    0.19300    0.94176    1.000
    N5       N        0.52700    0.33400    0.94176    1.000
    N6       N        0.80700    0.47300    0.94176    1.000
    N7       N        0.52700    0.19300    0.05824    1.000
    N8       N        0.80700    0.33400    0.05824    1.000
    N9       N        0.66600    0.47300    0.05824    1.000
    N10      N        0.47300    0.80700    0.55824    1.000
    N11      N        0.19300    0.66600    0.55824    1.000
    N12      N        0.33400    0.52700    0.55824    1.000
    N13      N        0.66600    0.19300    0.55824    1.000
    N14      N        0.52700    0.33400    0.55824    1.000
    N15      N        0.80700    0.47300    0.55824    1.000
    N16      N        0.33400    0.80700    0.05824    1.000
    N17      N        0.47300    0.66600    0.05824    1.000
    N18      N        0.19300    0.52700    0.05824    1.000
    N19      N        0.47300    0.80700    0.94176    1.000
    N20      N        0.19300    0.66600    0.94176    1.000
    N21      N        0.33400    0.52700    0.94176    1.000
    N22      N        0.52700    0.19300    0.44176    1.000
    N23      N        0.80700    0.33400    0.44176    1.000
    N24      N        0.66600    0.47300    0.44176    1.000
