# CIF file generated by openbabel 3.1.0, see https://openbabel.org
data_I
_chemical_name_common 'image0'
_cell_length_a 32.8072
_cell_length_b 14.9123
_cell_length_c 34.9062
_cell_angle_alpha 90
_cell_angle_beta 105.822
_cell_angle_gamma 90
_space_group_name_H-M_alt 'P 1'
_space_group_name_Hall 'P 1'
loop_
    _symmetry_equiv_pos_as_xyz
    x,y,z
loop_
    _atom_site_label
    _atom_site_type_symbol
    _atom_site_fract_x
    _atom_site_fract_y
    _atom_site_fract_z
    _atom_site_occupancy
    N1       N        0.93839    0.33630    0.11394    1.000
    I1       I        0.95545    0.40680    0.01740    1.000
    Zn1      Zn       0.98081    0.31435    0.08095    1.000
    C1       C        0.92520    0.42010    0.11870    1.000
    H1       H        0.93620    0.46860    0.10700    1.000
    I2       I        0.05563    0.32989    0.12625    1.000
    Zn2      Zn       0.67121    0.79335    0.15206    1.000
    C2       C        0.89620    0.43810    0.13990    1.000
    H2       H        0.88740    0.49790    0.14250    1.000
    I3       I        0.70751    0.90029    0.11492    1.000
    Zn3      Zn       0.81949    0.05258    0.36222    1.000
    C3       C        0.88019    0.36730    0.15738    1.000
    I4       I        0.64077    0.82307    0.21031    1.000
    Zn4      Zn       0.98981    0.77396    0.58766    1.000
    C4       C        0.89430    0.28050    0.15270    1.000
    H3       H        0.88420    0.23050    0.16430    1.000
    I5       I        0.75273    0.04586    0.38468    1.000
    Zn5      Zn       0.17471    0.03392    0.65542    1.000
    C5       C        0.92320    0.26930    0.13070    1.000
    H4       H        0.93270    0.21030    0.12750    1.000
    I6       I        0.85712    0.91324    0.34560    1.000
    Zn6      Zn       0.67739    0.26647    0.62028    1.000
    N2       N        0.71237    0.68390    0.16686    1.000
    I7       I        0.05991    0.80375    0.63906    1.000
    Zn7      Zn       0.30762    0.23771    0.36796    1.000
    C6       C        0.73250    0.65660    0.14060    1.000
    H5       H        0.72830    0.68870    0.11640    1.000
    I8       I        0.96416    0.87720    0.52737    1.000
    Zn8      Zn       0.48092    0.50521    0.58652    1.000
    C7       C        0.75930    0.58300    0.14750    1.000
    H6       H        0.77340    0.56500    0.12830    1.000
    I9       I        0.13893    0.01101    0.71087    1.000
    Zn9      Zn       0.30628    0.76691    0.86862    1.000
    C8       C        0.76524    0.53630    0.18288    1.000
    I10      I        0.21147    0.91548    0.62446    1.000
    Zn10     Zn       0.17500    0.55409    0.11952    1.000
    C9       C        0.74410    0.56460    0.21033    1.000
    H7       H        0.74750    0.53370    0.23480    1.000
    I11      I        0.69150    0.32497    0.55607    1.000
    Zn11     Zn       0.49022    0.04434    0.08388    1.000
    C10      C        0.71791    0.63890    0.20107    1.000
    H8       H        0.70340    0.65860    0.21970    1.000
    I12      I        0.67484    0.37322    0.67500    1.000
    Zn12     Zn       0.80015    0.58765    0.87101    1.000
    N3       N        0.81339    0.14010    0.31472    1.000
    I13      I        0.23792    0.22831    0.38531    1.000
    C11      C        0.84090    0.13320    0.29300    1.000
    H9       H        0.86120    0.08630    0.29900    1.000
    I14      I        0.34130    0.38464    0.35487    1.000
    C12      C        0.84130    0.19080    0.26240    1.000
    H10      H        0.86070    0.18230    0.24690    1.000
    I15      I        0.45232    0.39826    0.52803    1.000
    C13      C        0.81263    0.26190    0.25465    1.000
    I16      I        0.55352    0.47646    0.63474    1.000
    C14      C        0.78380    0.26940    0.27693    1.000
    H11      H        0.76350    0.31640    0.27190    1.000
    I17      I        0.34016    0.91321    0.85442    1.000
    C15      C        0.78500    0.20670    0.30686    1.000
    H12      H        0.76510    0.21150    0.32210    1.000
    I18      I        0.23744    0.75298    0.88776    1.000
    C16      C        0.84796    0.37990    0.17944    1.000
    I19      I        0.18092    0.51669    0.04942    1.000
    N4       N        0.82367    0.45350    0.17169    1.000
    I20      I        0.17772    0.43566    0.17080    1.000
    C17      C        0.79305    0.45610    0.19023    1.000
    I21      I        0.46468    0.95003    0.02095    1.000
    N5       N        0.78612    0.39470    0.21582    1.000
    I22      I        0.56253    0.02592    0.13325    1.000
    C18      C        0.81475    0.32720    0.22331    1.000
    I23      I        0.72938    0.61250    0.88499    1.000
    N6       N        0.84553    0.31650    0.20570    1.000
    I24      I        0.82826    0.43390    0.85856    1.000
    N7       N        0.86300    0.11720    0.40811    1.000
    C19      C        0.89280    0.06930    0.43400    1.000
    H13      H        0.89430    0.00650    0.43000    1.000
    C20      C        0.92140    0.10850    0.46610    1.000
    H14      H        0.94240    0.07320    0.48380    1.000
    C21      C        0.91902    0.19930    0.47215    1.000
    C22      C        0.88820    0.24940    0.44630    1.000
    H15      H        0.88570    0.31200    0.45010    1.000
    C23      C        0.86080    0.20490    0.41423    1.000
    H16      H        0.83960    0.23870    0.39600    1.000
    N8       N        0.98344    0.64020    0.57246    1.000
    C24      C        0.95480    0.60990    0.53987    1.000
    H17      H        0.93640    0.65150    0.52300    1.000
    C25      C        0.95130    0.51980    0.53000    1.000
    H18      H        0.93060    0.50040    0.50680    1.000
    C26      C        0.97814    0.45760    0.55414    1.000
    C27      C        0.00720    0.49030    0.58848    1.000
    H19      H        0.02580    0.45030    0.60620    1.000
    C28      C        0.00870    0.58070    0.59630    1.000
    H20      H        0.02850    0.60200    0.61970    1.000
    N9       N        0.12608    0.09290    0.61238    1.000
    C29      C        0.09010    0.04660    0.59592    1.000
    H21      H        0.09020    0.98330    0.59910    1.000
    C30      C        0.05310    0.08800    0.57467    1.000
    H22      H        0.02860    0.05370    0.56260    1.000
    C31      C        0.05262    0.18040    0.57142    1.000
    C32      C        0.08980    0.22790    0.58713    1.000
    H23      H        0.09060    0.29120    0.58410    1.000
    C33      C        0.12550    0.18140    0.60718    1.000
    H24      H        0.15100    0.21400    0.61780    1.000
    C34      C        0.95138    0.24260    0.50549    1.000
    N10      N        0.94628    0.32850    0.51455    1.000
    C35      C        0.97788    0.36160    0.54382    1.000
    N11      N        0.01195    0.31560    0.56396    1.000
    C36      C        0.01346    0.23090    0.55183    1.000
    N12      N        0.98436    0.19070    0.52327    1.000
    N13      N        0.94376    0.79180    0.61736    1.000
    C37      C        0.93040    0.87610    0.62010    1.000
    H25      H        0.94200    0.92320    0.60800    1.000
    C38      C        0.90080    0.89650    0.63980    1.000
    H26      H        0.89170    0.95670    0.64100    1.000
    C39      C        0.88412    0.82890    0.65802    1.000
    C40      C        0.89750    0.74130    0.65480    1.000
    H27      H        0.88660    0.69300    0.66670    1.000
    C41      C        0.92700    0.72620    0.63400    1.000
    H28      H        0.93570    0.66630    0.63130    1.000
    N14      N        0.71937    0.16410    0.64294    1.000
    C42      C        0.74231    0.12710    0.62091    1.000
    H29      H        0.74040    0.15160    0.59540    1.000
    C43      C        0.76841    0.05530    0.63363    1.000
    H30      H        0.78460    0.03100    0.61730    1.000
    C44      C        0.77086    0.01840    0.67085    1.000
    C45      C        0.74732    0.05690    0.69430    1.000
    H31      H        0.74840    0.03310    0.71980    1.000
    C46      C        0.72242    0.13010    0.67962    1.000
    H32      H        0.70690    0.15780    0.69570    1.000
    N15      N        0.80328    0.66200    0.82188    1.000
    C47      C        0.83910    0.66020    0.81100    1.000
    H33      H        0.86190    0.62460    0.82600    1.000
    C48      C        0.84440    0.70830    0.77880    1.000
    H34      H        0.87040    0.70550    0.77180    1.000
    C49      C        0.81117    0.76080    0.75678    1.000
    C50      C        0.77370    0.76150    0.76817    1.000
    H35      H        0.75020    0.79610    0.75370    1.000
    C51      C        0.77100    0.71160    0.80066    1.000
    H36      H        0.74530    0.71250    0.80820    1.000
    C52      C        0.85183    0.85030    0.67892    1.000
    N16      N        0.82897    0.92420    0.66706    1.000
    C53      C        0.79824    0.93880    0.68476    1.000
    N17      N        0.79043    0.88750    0.71334    1.000
    C54      C        0.81679    0.81700    0.72405    1.000
    N18      N        0.84770    0.79570    0.70788    1.000
    N19      N        0.62143    0.19530    0.60109    1.000
    C55      C        0.58380    0.23740    0.58930    1.000
    H37      H        0.58270    0.30030    0.59320    1.000
    C56      C        0.54666    0.19210    0.57170    1.000
    H38      H        0.52060    0.22350    0.56300    1.000
    C57      C        0.54829    0.09930    0.56698    1.000
    C58      C        0.58690    0.05560    0.57950    1.000
    H39      H        0.58880    0.99250    0.57660    1.000
    C59      C        0.62250    0.10610    0.59630    1.000
    H40      H        0.64900    0.07630    0.60480    1.000
    N20      N        0.35288    0.16900    0.41098    1.000
    C60      C        0.38100    0.21530    0.43920    1.000
    H41      H        0.37970    0.27900    0.43880    1.000
    C61      C        0.41200    0.17370    0.46880    1.000
    H42      H        0.43160    0.20810    0.48830    1.000
    C62      C        0.41379    0.08010    0.46966    1.000
    C63      C        0.38431    0.03190    0.44125    1.000
    H43      H        0.38450    0.96820    0.44150    1.000
    C64      C        0.35420    0.07930    0.41215    1.000
    H44      H        0.33400    0.04660    0.39250    1.000
    N21      N        0.47832    0.63600    0.56625    1.000
    C65      C        0.50900    0.69230    0.58490    1.000
    H45      H        0.53150    0.66970    0.60600    1.000
    C66      C        0.50950    0.78160    0.57500    1.000
    H46      H        0.53230    0.81900    0.58870    1.000
    C67      C        0.47660    0.81640    0.54500    1.000
    C68      C        0.44500    0.75800    0.52490    1.000
    H47      H        0.42230    0.77890    0.50360    1.000
    C69      C        0.44700    0.66870    0.53640    1.000
    C70      C        0.51015    0.04660    0.54699    1.000
    N22      N        0.47936    0.08860    0.51998    1.000
    C71      C        0.44746    0.03490    0.50071    1.000
    N23      N        0.44434    0.94710    0.50647    1.000
    C72      C        0.47653    0.91300    0.53514    1.000
    N24      N        0.50992    0.96000    0.55639    1.000
    N25      N        0.43815    0.49730    0.61987    1.000
    C73      C        0.42755    0.41460    0.62890    1.000
    H48      H        0.44060    0.36420    0.62050    1.000
    C74      C        0.39810    0.40100    0.65012    1.000
    H49      H        0.39110    0.34180    0.65610    1.000
    C75      C        0.37901    0.47380    0.66263    1.000
    C76      C        0.39120    0.55870    0.65410    1.000
    H50      H        0.37950    0.61020    0.66310    1.000
    C77      C        0.42030    0.56800    0.63270    1.000
    H51      H        0.42810    0.62660    0.62670    1.000
    N26      N        0.30437    0.68390    0.82065    1.000
    C78      C        0.27440    0.62200    0.80720    1.000
    H52      H        0.25220    0.61700    0.81980    1.000
    C79      C        0.27410    0.56500    0.77600    1.000
    H53      H        0.25210    0.52200    0.76720    1.000
    C80      C        0.30650    0.57190    0.75768    1.000
    C81      C        0.33720    0.63720    0.77130    1.000
    H54      H        0.35940    0.64470    0.75890    1.000
    C82      C        0.33520    0.69070    0.80260    1.000
    H55      H        0.35670    0.73430    0.81190    1.000
    N27      N        0.21590    0.14230    0.67015    1.000
    C83      C        0.21470    0.19740    0.70042    1.000
    H56      H        0.19660    0.18280    0.71670    1.000
    C84      C        0.23910    0.27510    0.70866    1.000
    H57      H        0.23760    0.31280    0.73020    1.000
    C85      C        0.26574    0.29720    0.68518    1.000
    C86      C        0.26670    0.23970    0.65380    1.000
    H58      H        0.28440    0.25270    0.63710    1.000
    C87      C        0.24160    0.16340    0.64750    1.000
    H59      H        0.24260    0.12460    0.62620    1.000
    C88      C        0.34608    0.46060    0.68381    1.000
    N28      N        0.34123    0.52360    0.70886    1.000
    C89      C        0.31019    0.50910    0.72564    1.000
    N29      N        0.28311    0.43960    0.71783    1.000
    C90      C        0.29204    0.37940    0.69315    1.000
    N30      N        0.32383    0.38390    0.67598    1.000
    N31      N        0.35251    0.70610    0.91323    1.000
    C91      C        0.38200    0.75450    0.93940    1.000
    H60      H        0.38190    0.81780    0.93650    1.000
    C92      C        0.41230    0.71560    0.97030    1.000
    H61      H        0.43320    0.75140    0.98790    1.000
    C93      C        0.41171    0.62350    0.97520    1.000
    C94      C        0.38130    0.57340    0.94900    1.000
    H62      H        0.38010    0.51010    0.95180    1.000
    C95      C        0.35230    0.61820    0.91830    1.000
    H63      H        0.33130    0.58380    0.90000    1.000
    N32      N        0.48180    0.17950    0.06940    1.000
    C96      C        0.44990    0.21200    0.04110    1.000
    H64      H        0.42950    0.17120    0.02610    1.000
    C97      C        0.44450    0.30240    0.03230    1.000
    H65      H        0.42080    0.32280    0.01190    1.000
    C98      C        0.47380    0.36160    0.05320    1.000
    C99      C        0.50750    0.32850    0.08120    1.000
    H66      H        0.52900    0.36780    0.09560    1.000
    C100     C        0.51050    0.23760    0.08860    1.000
    H67      H        0.53430    0.21580    0.10850    1.000
    N33      N        0.61944    0.73260    0.11306    1.000
    C101     C        0.61750    0.64340    0.11350    1.000
    H68      H        0.64210    0.61060    0.12690    1.000
    C102     C        0.58080    0.59690    0.09510    1.000
    H69      H        0.58040    0.53320    0.09600    1.000
    C103     C        0.54520    0.64310    0.07550    1.000
    C104     C        0.54770    0.73580    0.07410    1.000
    H70      H        0.52380    0.77020    0.06030    1.000
    C105     C        0.58570    0.77740    0.09320    1.000
    H71      H        0.58740    0.84090    0.09180    1.000
    C106     C        0.44469    0.58100    0.00800    1.000
    N34      N        0.44052    0.49320    0.01520    1.000
    C107     C        0.47240    0.46060    0.04490    1.000
    N35      N        0.50489    0.50760    0.06661    1.000
    C108     C        0.50640    0.59230    0.05560    1.000
    N36      N        0.47707    0.63340    0.02644    1.000
    N37      N        0.30868    0.15820    0.31965    1.000
    C109     C        0.27560    0.11030    0.29828    1.000
    H72      H        0.24960    0.11320    0.30520    1.000
    C110     C        0.27790    0.05730    0.26678    1.000
    H73      H        0.25410    0.02320    0.25260    1.000
    C111     C        0.31530    0.05420    0.25591    1.000
    C112     C        0.34970    0.10460    0.27740    1.000
    H74      H        0.37570    0.10420    0.27050    1.000
    C113     C        0.34500    0.15510    0.30910    1.000
    H75      H        0.36840    0.18910    0.32400    1.000
    N38      N        0.21811    0.65360    0.14350    1.000
    C114     C        0.22190    0.68820    0.17970    1.000
    H76      H        0.20560    0.66330    0.19580    1.000
    C115     C        0.24890    0.75960    0.19429    1.000
    H77      H        0.25100    0.78320    0.22000    1.000
    C116     C        0.27282    0.79580    0.17110    1.000
    C117     C        0.27000    0.75770    0.13430    1.000
    H78      H        0.28680    0.77990    0.11810    1.000
    C118     C        0.24240    0.68660    0.12140    1.000
    H79      H        0.24050    0.66050    0.09620    1.000
    N39      N        0.44498    0.02210    0.11398    1.000
    C119     C        0.43720    0.08030    0.13990    1.000
    H80      H        0.45240    0.13520    0.14410    1.000
    C120     C        0.40770    0.06440    0.16130    1.000
    H81      H        0.40330    0.10710    0.17990    1.000
    C121     C        0.38510    0.98520    0.15470    1.000
    C122     C        0.39360    0.92390    0.12800    1.000
    H82      H        0.37920    0.86800    0.12340    1.000
    C123     C        0.42300    0.94530    0.10820    1.000
    H83      H        0.42820    0.90350    0.08950    1.000
    C124     C        0.32030    0.99600    0.22307    1.000
    N40      N        0.29330    0.92700    0.21278    1.000
    C125     C        0.30024    0.87590    0.18379    1.000
    N41      N        0.32924    0.89110    0.16445    1.000
    C126     C        0.35360    0.96330    0.17675    1.000
    N42      N        0.35106    0.01640    0.20640    1.000
    N43      N        0.11789    0.62310    0.10637    1.000
    C127     C        0.08150    0.57920    0.09190    1.000
    H84      H        0.08150    0.51550    0.09340    1.000
    C128     C        0.04366    0.62270    0.07490    1.000
    H85      H        0.01830    0.58950    0.06450    1.000
    C129     C        0.04332    0.71550    0.07335    1.000
    C130     C        0.08090    0.76160    0.08950    1.000
    H86      H        0.08140    0.82520    0.08990    1.000
    C131     C        0.11780    0.71260    0.10510    1.000
    H87      H        0.14380    0.74380    0.11510    1.000
    N44      N        0.84807    0.64940    0.91322    1.000
    C132     C        0.88180    0.60300    0.93489    1.000
    H88      H        0.88370    0.54080    0.92980    1.000
    C133     C        0.91370    0.64290    0.96440    1.000
    H89      H        0.93720    0.60870    0.97930    1.000
    C134     C        0.91083    0.73360    0.97191    1.000
    C135     C        0.87640    0.78260    0.94909    1.000
    H90      H        0.87400    0.84520    0.95310    1.000
    C136     C        0.84590    0.73730    0.92049    1.000
    H91      H        0.82220    0.77010    0.90520    1.000
    N45      N        0.97259    0.17750    0.06756    1.000
    C137     C        0.99580    0.11940    0.09350    1.000
    H92      H        0.01360    0.14170    0.11790    1.000
    C138     C        0.99520    0.02830    0.08660    1.000
    H93      H        0.01260    0.98900    0.10560    1.000
    C139     C        0.96854    0.99480    0.05127    1.000
    C140     C        0.94320    0.05480    0.02518    1.000
    H94      H        0.92380    0.03420    0.00140    1.000
    C141     C        0.94660    0.14590    0.03410    1.000
    H95      H        0.92970    0.18700    0.01560    1.000
    C142     C        0.00500    0.76690    0.05298    1.000
    N46      N        0.97631    0.72590    0.02357    1.000
    C143     C        0.94371    0.77740    0.00437    1.000
    N47      N        0.93895    0.86400    0.01201    1.000
    C144     C        0.96958    0.89790    0.04208    1.000
    N48      N        0.00261    0.85190    0.06430    1.000
    N49      N        0.06161    0.83630    0.88606    1.000
    I25      I        0.04455    0.90680    0.98260    1.000
    Zn13     Zn       0.01919    0.81435    0.91905    1.000
    C145     C        0.07480    0.92010    0.88130    1.000
    H96      H        0.06380    0.96860    0.89300    1.000
    I26      I        0.94437    0.82989    0.87375    1.000
    Zn14     Zn       0.32879    0.29335    0.84794    1.000
    C146     C        0.10380    0.93810    0.86010    1.000
    H97      H        0.11260    0.99790    0.85750    1.000
    I27      I        0.29249    0.40029    0.88508    1.000
    Zn15     Zn       0.18051    0.55258    0.63778    1.000
    C147     C        0.11981    0.86730    0.84262    1.000
    I28      I        0.35923    0.32307    0.78969    1.000
    Zn16     Zn       0.01019    0.27396    0.41234    1.000
    C148     C        0.10570    0.78050    0.84730    1.000
    H98      H        0.11580    0.73050    0.83570    1.000
    I29      I        0.24727    0.54586    0.61532    1.000
    Zn17     Zn       0.82529    0.53392    0.34458    1.000
    C149     C        0.07680    0.76930    0.86930    1.000
    H99      H        0.06730    0.71030    0.87250    1.000
    I30      I        0.14288    0.41324    0.65440    1.000
    Zn18     Zn       0.32261    0.76647    0.37972    1.000
    N50      N        0.28763    0.18390    0.83314    1.000
    I31      I        0.94009    0.30375    0.36094    1.000
    Zn19     Zn       0.69238    0.73771    0.63204    1.000
    C150     C        0.26750    0.15660    0.85940    1.000
    H100     H        0.27170    0.18870    0.88360    1.000
    I32      I        0.03584    0.37720    0.47263    1.000
    Zn20     Zn       0.51908    0.00521    0.41348    1.000
    C151     C        0.24070    0.08300    0.85250    1.000
    H101     H        0.22660    0.06500    0.87170    1.000
    I33      I        0.86107    0.51101    0.28913    1.000
    Zn21     Zn       0.69372    0.26691    0.13138    1.000
    C152     C        0.23476    0.03630    0.81712    1.000
    I34      I        0.78853    0.41548    0.37554    1.000
    Zn22     Zn       0.82500    0.05409    0.88048    1.000
    C153     C        0.25590    0.06460    0.78967    1.000
    H102     H        0.25250    0.03370    0.76520    1.000
    I35      I        0.30850    0.82497    0.44393    1.000
    Zn23     Zn       0.50978    0.54434    0.91612    1.000
    C154     C        0.28209    0.13890    0.79893    1.000
    H103     H        0.29660    0.15860    0.78030    1.000
    I36      I        0.32516    0.87322    0.32500    1.000
    Zn24     Zn       0.19985    0.08765    0.12899    1.000
    N51      N        0.18661    0.64010    0.68528    1.000
    I37      I        0.76208    0.72831    0.61469    1.000
    C155     C        0.15910    0.63320    0.70700    1.000
    H104     H        0.13880    0.58630    0.70100    1.000
    I38      I        0.65870    0.88464    0.64513    1.000
    C156     C        0.15870    0.69080    0.73760    1.000
    H105     H        0.13930    0.68230    0.75310    1.000
    I39      I        0.54768    0.89826    0.47197    1.000
    C157     C        0.18737    0.76190    0.74535    1.000
    I40      I        0.44648    0.97646    0.36526    1.000
    C158     C        0.21620    0.76940    0.72307    1.000
    H106     H        0.23650    0.81640    0.72810    1.000
    I41      I        0.65984    0.41321    0.14558    1.000
    C159     C        0.21500    0.70670    0.69314    1.000
    H107     H        0.23490    0.71150    0.67790    1.000
    I42      I        0.76256    0.25298    0.11224    1.000
    C160     C        0.15204    0.87990    0.82056    1.000
    I43      I        0.81908    0.01669    0.95058    1.000
    N52      N        0.17633    0.95350    0.82831    1.000
    I44      I        0.82228    0.93566    0.82920    1.000
    C161     C        0.20695    0.95610    0.80977    1.000
    I45      I        0.53532    0.45003    0.97905    1.000
    N53      N        0.21388    0.89470    0.78418    1.000
    I46      I        0.43747    0.52592    0.86675    1.000
    C162     C        0.18525    0.82720    0.77669    1.000
    I47      I        0.27062    0.11250    0.11501    1.000
    N54      N        0.15447    0.81650    0.79430    1.000
    I48      I        0.17174    0.93390    0.14144    1.000
    N55      N        0.13700    0.61720    0.59189    1.000
    C163     C        0.10720    0.56930    0.56600    1.000
    H108     H        0.10570    0.50650    0.57000    1.000
    C164     C        0.07860    0.60850    0.53390    1.000
    H109     H        0.05760    0.57320    0.51620    1.000
    C165     C        0.08098    0.69930    0.52785    1.000
    C166     C        0.11180    0.74940    0.55370    1.000
    H110     H        0.11430    0.81200    0.54990    1.000
    C167     C        0.13920    0.70490    0.58577    1.000
    H111     H        0.16040    0.73870    0.60400    1.000
    N56      N        0.01656    0.14020    0.42754    1.000
    C168     C        0.04520    0.10990    0.46013    1.000
    H112     H        0.06360    0.15150    0.47700    1.000
    C169     C        0.04870    0.01980    0.47000    1.000
    H113     H        0.06940    0.00040    0.49320    1.000
    C170     C        0.02186    0.95760    0.44586    1.000
    C171     C        0.99280    0.99030    0.41152    1.000
    H114     H        0.97420    0.95030    0.39380    1.000
    C172     C        0.99130    0.08070    0.40370    1.000
    H115     H        0.97150    0.10200    0.38030    1.000
    N57      N        0.87392    0.59290    0.38762    1.000
    C173     C        0.90990    0.54660    0.40408    1.000
    H116     H        0.90980    0.48330    0.40090    1.000
    C174     C        0.94690    0.58800    0.42533    1.000
    H117     H        0.97140    0.55370    0.43740    1.000
    C175     C        0.94738    0.68040    0.42858    1.000
    C176     C        0.91020    0.72790    0.41287    1.000
    H118     H        0.90940    0.79120    0.41590    1.000
    C177     C        0.87450    0.68140    0.39282    1.000
    H119     H        0.84900    0.71400    0.38220    1.000
    C178     C        0.04862    0.74260    0.49451    1.000
    N58      N        0.05372    0.82850    0.48545    1.000
    C179     C        0.02212    0.86160    0.45618    1.000
    N59      N        0.98805    0.81560    0.43604    1.000
    C180     C        0.98654    0.73090    0.44817    1.000
    N60      N        0.01564    0.69070    0.47673    1.000
    N61      N        0.05624    0.29180    0.38264    1.000
    C181     C        0.06960    0.37610    0.37990    1.000
    H120     H        0.05800    0.42320    0.39200    1.000
    C182     C        0.09920    0.39650    0.36020    1.000
    H121     H        0.10830    0.45670    0.35900    1.000
    C183     C        0.11588    0.32890    0.34198    1.000
    C184     C        0.10250    0.24130    0.34520    1.000
    H122     H        0.11340    0.19300    0.33330    1.000
    C185     C        0.07300    0.22620    0.36600    1.000
    H123     H        0.06430    0.16630    0.36870    1.000
    N62      N        0.28063    0.66410    0.35706    1.000
    C186     C        0.25769    0.62710    0.37909    1.000
    H124     H        0.25960    0.65160    0.40460    1.000
    C187     C        0.23159    0.55530    0.36637    1.000
    H125     H        0.21540    0.53100    0.38270    1.000
    C188     C        0.22914    0.51840    0.32915    1.000
    C189     C        0.25268    0.55690    0.30570    1.000
    H126     H        0.25160    0.53310    0.28020    1.000
    C190     C        0.27758    0.63010    0.32038    1.000
    H127     H        0.29310    0.65780    0.30430    1.000
    N63      N        0.19672    0.16200    0.17812    1.000
    C191     C        0.16090    0.16020    0.18900    1.000
    H128     H        0.13810    0.12460    0.17400    1.000
    C192     C        0.15560    0.20830    0.22120    1.000
    H129     H        0.12960    0.20550    0.22820    1.000
    C193     C        0.18883    0.26080    0.24322    1.000
    C194     C        0.22630    0.26150    0.23183    1.000
    H130     H        0.24980    0.29610    0.24630    1.000
    C195     C        0.22900    0.21160    0.19934    1.000
    H131     H        0.25470    0.21250    0.19180    1.000
    C196     C        0.14817    0.35030    0.32108    1.000
    N64      N        0.17103    0.42420    0.33294    1.000
    C197     C        0.20176    0.43880    0.31524    1.000
    N65      N        0.20957    0.38750    0.28666    1.000
    C198     C        0.18321    0.31700    0.27595    1.000
    N66      N        0.15230    0.29570    0.29212    1.000
    N67      N        0.37857    0.69530    0.39891    1.000
    C199     C        0.41620    0.73740    0.41070    1.000
    H132     H        0.41730    0.80030    0.40680    1.000
    C200     C        0.45334    0.69210    0.42830    1.000
    H133     H        0.47940    0.72350    0.43700    1.000
    C201     C        0.45171    0.59930    0.43302    1.000
    C202     C        0.41310    0.55560    0.42050    1.000
    H134     H        0.41120    0.49250    0.42340    1.000
    C203     C        0.37750    0.60610    0.40370    1.000
    H135     H        0.35100    0.57630    0.39520    1.000
    N68      N        0.64712    0.66900    0.58902    1.000
    C204     C        0.61900    0.71530    0.56080    1.000
    H136     H        0.62030    0.77900    0.56120    1.000
    C205     C        0.58800    0.67370    0.53120    1.000
    H137     H        0.56840    0.70810    0.51170    1.000
    C206     C        0.58621    0.58010    0.53034    1.000
    C207     C        0.61569    0.53190    0.55875    1.000
    H138     H        0.61550    0.46820    0.55850    1.000
    C208     C        0.64580    0.57930    0.58785    1.000
    H139     H        0.66600    0.54660    0.60750    1.000
    N69      N        0.52168    0.13600    0.43375    1.000
    C209     C        0.49100    0.19230    0.41510    1.000
    H140     H        0.46850    0.16970    0.39400    1.000
    C210     C        0.49050    0.28160    0.42500    1.000
    H141     H        0.46770    0.31900    0.41130    1.000
    C211     C        0.52340    0.31640    0.45500    1.000
    C212     C        0.55500    0.25800    0.47510    1.000
    H142     H        0.57770    0.27890    0.49640    1.000
    C213     C        0.55300    0.16870    0.46360    1.000
    C214     C        0.48985    0.54660    0.45301    1.000
    N70      N        0.52064    0.58860    0.48002    1.000
    C215     C        0.55254    0.53490    0.49929    1.000
    N71      N        0.55566    0.44710    0.49353    1.000
    C216     C        0.52347    0.41300    0.46486    1.000
    N72      N        0.49008    0.46000    0.44361    1.000
    N73      N        0.56185    0.99730    0.38013    1.000
    C217     C        0.57245    0.91460    0.37110    1.000
    H143     H        0.55940    0.86420    0.37950    1.000
    C218     C        0.60190    0.90100    0.34988    1.000
    H144     H        0.60890    0.84180    0.34390    1.000
    C219     C        0.62099    0.97380    0.33737    1.000
    C220     C        0.60880    0.05870    0.34590    1.000
    H145     H        0.62050    0.11020    0.33690    1.000
    C221     C        0.57970    0.06800    0.36730    1.000
    H146     H        0.57190    0.12660    0.37330    1.000
    N74      N        0.69563    0.18390    0.17935    1.000
    C222     C        0.72560    0.12200    0.19280    1.000
    H147     H        0.74780    0.11700    0.18020    1.000
    C223     C        0.72590    0.06500    0.22400    1.000
    H148     H        0.74790    0.02200    0.23280    1.000
    C224     C        0.69350    0.07190    0.24232    1.000
    C225     C        0.66280    0.13720    0.22870    1.000
    H149     H        0.64060    0.14470    0.24110    1.000
    C226     C        0.66480    0.19070    0.19740    1.000
    H150     H        0.64330    0.23430    0.18810    1.000
    N75      N        0.78410    0.64230    0.32985    1.000
    C227     C        0.78530    0.69740    0.29958    1.000
    H151     H        0.80340    0.68280    0.28330    1.000
    C228     C        0.76090    0.77510    0.29134    1.000
    H152     H        0.76240    0.81280    0.26980    1.000
    C229     C        0.73426    0.79720    0.31482    1.000
    C230     C        0.73330    0.73970    0.34620    1.000
    H153     H        0.71560    0.75270    0.36290    1.000
    C231     C        0.75840    0.66340    0.35250    1.000
    H154     H        0.75740    0.62460    0.37380    1.000
    C232     C        0.65392    0.96060    0.31619    1.000
    N76      N        0.65877    0.02360    0.29114    1.000
    C233     C        0.68981    0.00910    0.27436    1.000
    N77      N        0.71689    0.93960    0.28217    1.000
    C234     C        0.70796    0.87940    0.30685    1.000
    N78      N        0.67617    0.88390    0.32402    1.000
    N79      N        0.64749    0.20610    0.08677    1.000
    C235     C        0.61800    0.25450    0.06060    1.000
    H155     H        0.61810    0.31780    0.06350    1.000
    C236     C        0.58770    0.21560    0.02970    1.000
    H156     H        0.56680    0.25140    0.01210    1.000
    C237     C        0.58829    0.12350    0.02480    1.000
    C238     C        0.61870    0.07340    0.05100    1.000
    H157     H        0.61990    0.01010    0.04820    1.000
    C239     C        0.64770    0.11820    0.08170    1.000
    H158     H        0.66870    0.08380    0.10000    1.000
    N80      N        0.51820    0.67950    0.93060    1.000
    C240     C        0.55010    0.71200    0.95890    1.000
    H159     H        0.57050    0.67120    0.97390    1.000
    C241     C        0.55550    0.80240    0.96770    1.000
    H160     H        0.57920    0.82280    0.98810    1.000
    C242     C        0.52620    0.86160    0.94680    1.000
    C243     C        0.49250    0.82850    0.91880    1.000
    H161     H        0.47100    0.86780    0.90440    1.000
    C244     C        0.48950    0.73760    0.91140    1.000
    H162     H        0.46570    0.71580    0.89150    1.000
    N81      N        0.38056    0.23260    0.88694    1.000
    C245     C        0.38250    0.14340    0.88650    1.000
    H163     H        0.35790    0.11060    0.87310    1.000
    C246     C        0.41920    0.09690    0.90490    1.000
    H164     H        0.41960    0.03320    0.90400    1.000
    C247     C        0.45480    0.14310    0.92450    1.000
    C248     C        0.45230    0.23580    0.92590    1.000
    H165     H        0.47620    0.27020    0.93970    1.000
    C249     C        0.41430    0.27740    0.90680    1.000
    H166     H        0.41260    0.34090    0.90820    1.000
    C250     C        0.55531    0.08100    0.99200    1.000
    N82      N        0.55948    0.99320    0.98480    1.000
    C251     C        0.52760    0.96060    0.95510    1.000
    N83      N        0.49511    0.00760    0.93339    1.000
    C252     C        0.49360    0.09230    0.94440    1.000
    N84      N        0.52293    0.13340    0.97356    1.000
    N85      N        0.69132    0.65820    0.68035    1.000
    C253     C        0.72440    0.61030    0.70172    1.000
    H167     H        0.75040    0.61320    0.69480    1.000
    C254     C        0.72210    0.55730    0.73322    1.000
    H168     H        0.74590    0.52320    0.74740    1.000
    C255     C        0.68470    0.55420    0.74409    1.000
    C256     C        0.65030    0.60460    0.72260    1.000
    H169     H        0.62430    0.60420    0.72950    1.000
    C257     C        0.65500    0.65510    0.69090    1.000
    H170     H        0.63160    0.68910    0.67600    1.000
    N86      N        0.78189    0.15360    0.85650    1.000
    C258     C        0.77810    0.18820    0.82030    1.000
    H171     H        0.79440    0.16330    0.80420    1.000
    C259     C        0.75110    0.25960    0.80571    1.000
    H172     H        0.74900    0.28320    0.78000    1.000
    C260     C        0.72718    0.29580    0.82890    1.000
    C261     C        0.73000    0.25770    0.86570    1.000
    H173     H        0.71320    0.27990    0.88190    1.000
    C262     C        0.75760    0.18660    0.87860    1.000
    H174     H        0.75950    0.16050    0.90380    1.000
    N87      N        0.55502    0.52210    0.88602    1.000
    C263     C        0.56280    0.58030    0.86010    1.000
    H175     H        0.54760    0.63520    0.85590    1.000
    C264     C        0.59230    0.56440    0.83870    1.000
    H176     H        0.59670    0.60710    0.82010    1.000
    C265     C        0.61490    0.48520    0.84530    1.000
    C266     C        0.60640    0.42390    0.87200    1.000
    H177     H        0.62080    0.36800    0.87660    1.000
    C267     C        0.57700    0.44530    0.89180    1.000
    H178     H        0.57180    0.40350    0.91050    1.000
    C268     C        0.67970    0.49600    0.77693    1.000
    N88      N        0.70670    0.42700    0.78722    1.000
    C269     C        0.69976    0.37590    0.81621    1.000
    N89      N        0.67076    0.39110    0.83555    1.000
    C270     C        0.64640    0.46330    0.82325    1.000
    N90      N        0.64894    0.51640    0.79360    1.000
    N91      N        0.88211    0.12310    0.89363    1.000
    C271     C        0.91850    0.07920    0.90810    1.000
    H179     H        0.91850    0.01550    0.90660    1.000
    C272     C        0.95634    0.12270    0.92510    1.000
    H180     H        0.98170    0.08950    0.93550    1.000
    C273     C        0.95668    0.21550    0.92665    1.000
    C274     C        0.91910    0.26160    0.91050    1.000
    H181     H        0.91860    0.32520    0.91010    1.000
    C275     C        0.88220    0.21260    0.89490    1.000
    H182     H        0.85620    0.24380    0.88490    1.000
    N92      N        0.15193    0.14940    0.08678    1.000
    C276     C        0.11820    0.10300    0.06511    1.000
    H183     H        0.11630    0.04080    0.07020    1.000
    C277     C        0.08630    0.14290    0.03560    1.000
    H184     H        0.06280    0.10870    0.02070    1.000
    C278     C        0.08917    0.23360    0.02809    1.000
    C279     C        0.12360    0.28260    0.05091    1.000
    H185     H        0.12600    0.34520    0.04690    1.000
    C280     C        0.15410    0.23730    0.07951    1.000
    H186     H        0.17780    0.27010    0.09480    1.000
    N93      N        0.02741    0.67750    0.93244    1.000
    C281     C        0.00420    0.61940    0.90650    1.000
    H187     H        0.98640    0.64170    0.88210    1.000
    C282     C        0.00480    0.52830    0.91340    1.000
    H188     H        0.98740    0.48900    0.89440    1.000
    C283     C        0.03146    0.49480    0.94873    1.000
    C284     C        0.05680    0.55480    0.97482    1.000
    H189     H        0.07620    0.53420    0.99860    1.000
    C285     C        0.05340    0.64590    0.96590    1.000
    H190     H        0.07030    0.68700    0.98440    1.000
    C286     C        0.99500    0.26690    0.94702    1.000
    N94      N        0.02369    0.22590    0.97643    1.000
    C287     C        0.05629    0.27740    0.99563    1.000
    N95      N        0.06105    0.36400    0.98799    1.000
    C288     C        0.03042    0.39790    0.95792    1.000
    N96      N        0.99739    0.35190    0.93570    1.000
