# CIF file generated by openbabel 3.1.0, see https://openbabel.org
data_I
_chemical_name_common 'GAMVAS_clean'
_cell_length_a 11.781
_cell_length_b 12.416
_cell_length_c 12.503
_cell_angle_alpha 118.87
_cell_angle_beta 108.3
_cell_angle_gamma 98.42
_space_group_name_H-M_alt 'P 1'
_space_group_name_Hall 'P 1'
loop_
    _symmetry_equiv_pos_as_xyz
    x,y,z
loop_
    _atom_site_label
    _atom_site_type_symbol
    _atom_site_fract_x
    _atom_site_fract_y
    _atom_site_fract_z
    _atom_site_occupancy
    Pr1      Pr       0.97782    0.67779    0.50960    1.000
    Pr2      Pr       0.69784    0.74342    0.26485    1.000
    Pr3      Pr       0.02218    0.32221    0.49040    1.000
    Pr4      Pr       0.30216    0.25658    0.73515    1.000
    H1       H        0.09680    0.94580    0.30100    1.000
    H2       H        0.35040    0.98580    0.15600    1.000
    H3       H        0.15740    0.62610    0.04950    1.000
    H4       H        0.99370    0.59010    0.10550    1.000
    H5       H        0.91880    0.68870    0.11410    1.000
    H6       H        0.34360    0.17990    0.32630    1.000
    H7       H        0.19470    0.15870    0.27990    1.000
    H8       H        0.28140    0.64350    0.93060    1.000
    H9       H        0.35130    0.78550    0.96590    1.000
    H10      H        0.93810    0.80490    0.97840    1.000
    H11      H        0.58760    0.82810    0.91850    1.000
    H12      H        0.62220    0.49270    0.65780    1.000
    H13      H        0.95140    0.58430    0.84800    1.000
    H14      H        0.82910    0.46830    0.71020    1.000
    H15      H        0.77430    0.02340    0.09570    1.000
    H16      H        0.91330    0.02050    0.10970    1.000
    H17      H        0.41170    0.66840    0.68480    1.000
    H18      H        0.42690    0.53590    0.58590    1.000
    H19      H        0.90320    0.05420    0.69900    1.000
    H20      H        0.64960    0.01420    0.84400    1.000
    H21      H        0.84260    0.37390    0.95050    1.000
    H22      H        0.00630    0.40990    0.89450    1.000
    H23      H        0.08120    0.31130    0.88590    1.000
    H24      H        0.65640    0.82010    0.67370    1.000
    H25      H        0.80530    0.84130    0.72010    1.000
    H26      H        0.71860    0.35650    0.06940    1.000
    H27      H        0.64870    0.21450    0.03410    1.000
    H28      H        0.06190    0.19510    0.02160    1.000
    H29      H        0.41240    0.17190    0.08150    1.000
    H30      H        0.37780    0.50730    0.34220    1.000
    H31      H        0.04860    0.41570    0.15200    1.000
    H32      H        0.17090    0.53170    0.28980    1.000
    H33      H        0.22570    0.97660    0.90430    1.000
    H34      H        0.08670    0.97950    0.89030    1.000
    H35      H        0.58830    0.33160    0.31520    1.000
    H36      H        0.57310    0.46410    0.41410    1.000
    C1       C        0.10810    0.77060    0.17200    1.000
    C2       C        0.13920    0.90770    0.24690    1.000
    C3       C        0.23100    0.98870    0.24350    1.000
    C4       C        0.29070    0.93180    0.16260    1.000
    C5       C        0.26430    0.79630    0.09070    1.000
    C6       C        0.17440    0.71820    0.09730    1.000
    C7       C        0.99890    0.68190    0.16270    1.000
    C8       C        0.00230    0.70580    0.29480    1.000
    C9       C        0.26470    0.13780    0.32520    1.000
    C10      C        0.28470    0.19320    0.46830    1.000
    C11      C        0.33440    0.73650    0.00580    1.000
    C12      C        0.45920    0.74490    0.09840    1.000
    C13      C        0.79210    0.63790    0.81320    1.000
    C14      C        0.84750    0.76560    0.92820    1.000
    C15      C        0.77150    0.83770    0.97160    1.000
    C16      C        0.63990    0.77930    0.89130    1.000
    C17      C        0.58160    0.65340    0.77370    1.000
    C18      C        0.65990    0.58080    0.73600    1.000
    C19      C        0.87810    0.56410    0.76680    1.000
    C20      C        0.92820    0.59800    0.68670    1.000
    C21      C        0.83210    0.97390    0.10160    1.000
    C22      C        0.85990    0.97510    0.22980    1.000
    C23      C        0.43900    0.59530    0.68020    1.000
    C24      C        0.34850    0.51970    0.70360    1.000
    C25      C        0.89190    0.22940    0.82800    1.000
    C26      C        0.86080    0.09230    0.75310    1.000
    C27      C        0.76900    0.01130    0.75650    1.000
    C28      C        0.70930    0.06820    0.83740    1.000
    C29      C        0.73570    0.20370    0.90930    1.000
    C30      C        0.82560    0.28180    0.90270    1.000
    C31      C        0.00110    0.31810    0.83730    1.000
    C32      C        0.99770    0.29420    0.70520    1.000
    C33      C        0.73530    0.86220    0.67480    1.000
    C34      C        0.71530    0.80680    0.53170    1.000
    C35      C        0.66560    0.26350    0.99420    1.000
    C36      C        0.54080    0.25510    0.90160    1.000
    C37      C        0.20790    0.36210    0.18680    1.000
    C38      C        0.15250    0.23440    0.07180    1.000
    C39      C        0.22850    0.16230    0.02840    1.000
    C40      C        0.36010    0.22070    0.10870    1.000
    C41      C        0.41840    0.34660    0.22630    1.000
    C42      C        0.34010    0.41920    0.26400    1.000
    C43      C        0.12190    0.43590    0.23320    1.000
    C44      C        0.07180    0.40200    0.31330    1.000
    C45      C        0.16790    0.02610    0.89840    1.000
    C46      C        0.14010    0.02490    0.77020    1.000
    C47      C        0.56100    0.40470    0.31980    1.000
    C48      C        0.65150    0.48030    0.29640    1.000
    O1       O        0.10490    0.73320    0.39070    1.000
    O2       O        0.89780    0.68910    0.30480    1.000
    O3       O        0.19620    0.22340    0.50290    1.000
    O4       O        0.38630    0.20520    0.55410    1.000
    O5       O        0.45880    0.66260    0.13060    1.000
    O6       O        0.56160    0.83480    0.14420    1.000
    O7       O        0.97210    0.52090    0.61140    1.000
    O8       O        0.92440    0.70060    0.69120    1.000
    O9       O        0.83170    0.86820    0.21960    1.000
    O10      O        0.91060    0.08650    0.34450    1.000
    O11      O        0.23100    0.50180    0.64390    1.000
    O12      O        0.38920    0.47410    0.77300    1.000
    O13      O        0.89510    0.26680    0.60930    1.000
    O14      O        0.10220    0.31090    0.69520    1.000
    O15      O        0.80380    0.77660    0.49710    1.000
    O16      O        0.61370    0.79480    0.44590    1.000
    O17      O        0.54120    0.33740    0.86940    1.000
    O18      O        0.43840    0.16520    0.85580    1.000
    O19      O        0.02790    0.47910    0.38860    1.000
    O20      O        0.07560    0.29940    0.30880    1.000
    O21      O        0.16830    0.13180    0.78040    1.000
    O22      O        0.08940    0.91350    0.65550    1.000
    O23      O        0.76900    0.49820    0.35610    1.000
    O24      O        0.61080    0.52590    0.22700    1.000
