# CIF file generated by openbabel 3.1.0, see https://openbabel.org
data_I
_chemical_name_common 'image0'
_cell_length_a 9.666
_cell_length_b 11.358
_cell_length_c 13.671
_cell_angle_alpha 69.701
_cell_angle_beta 70.792
_cell_angle_gamma 81.668
_space_group_name_H-M_alt 'P 1'
_space_group_name_Hall 'P 1'
loop_
    _symmetry_equiv_pos_as_xyz
    x,y,z
loop_
    _atom_site_label
    _atom_site_type_symbol
    _atom_site_fract_x
    _atom_site_fract_y
    _atom_site_fract_z
    _atom_site_occupancy
    O1       O        0.30040    0.42392    0.61810    1.000
    O2       O        0.15870    0.11630    0.97996    1.000
    N1       N        0.95870    0.16440    0.87735    1.000
    N2       N        0.29900    0.92250    0.71050    1.000
    N3       N        0.74880    0.14930    0.56260    1.000
    O3       O        0.27950    0.28740    0.86748    1.000
    C1       C        0.06580    0.24740    0.83700    1.000
    N4       N        0.41780    0.45880    0.22551    1.000
    C2       C        0.07460    0.35140    0.74340    1.000
    N5       N        0.59370    0.31280    0.55405    1.000
    C3       C        0.17840    0.21690    0.89860    1.000
    C4       C        0.87570    0.07370    0.53060    1.000
    N6       N        0.42660    0.46020    0.38416    1.000
    O4       O        0.17470    0.54000    0.72330    1.000
    C5       C        0.40050    0.96210    0.60340    1.000
    C6       C        0.49250    0.49480    0.27770    1.000
    H1       H        0.57900    0.53840    0.24310    1.000
    C7       C        0.54580    0.22230    0.65480    1.000
    H2       H        0.46160    0.22970    0.71050    1.000
    C8       C        0.19490    0.44600    0.69260    1.000
    C9       C        0.29600    0.39880    0.30320    1.000
    H3       H        0.22380    0.36410    0.29150    1.000
    N7       N        0.14570    0.93240    0.86850    1.000
    C10      C        0.45950    0.48070    0.11050    1.000
    C11      C        0.63970    0.12140    0.66030    1.000
    H4       H        0.63170    0.04750    0.71900    1.000
    C12      C        0.30240    0.40060    0.40090    1.000
    H5       H        0.23360    0.36680    0.46840    1.000
    C13      C        0.22870    0.99610    0.77180    1.000
    H6       H        0.23800    0.08260    0.74830    1.000
    C14      C        0.25510    0.80220    0.77230    1.000
    H7       H        0.28380    0.73010    0.75200    1.000
    C15      C        0.96670    0.36820    0.69290    1.000
    H8       H        0.97030    0.43530    0.62930    1.000
    C16      C        0.71550    0.26610    0.50110    1.000
    H9       H        0.77200    0.30760    0.43050    1.000
    C17      C        0.16200    0.80980    0.86830    1.000
    H10      H        0.11530    0.74200    0.92610    1.000
    C18      C        0.85380    0.18340    0.82890    1.000
    H11      H        0.77900    0.12660    0.85780    1.000
    C19      C        0.85400    0.28540    0.73690    1.000
    H12      H        0.77920    0.29810    0.70510    1.000
    C20      C        0.91520    0.97130    0.60770    1.000
    H13      H        0.85910    0.95160    0.68070    1.000
    C21      C        0.48250    0.11550    0.42680    1.000
    H14      H        0.47030    0.19390    0.37770    1.000
    C22      C        0.38270    0.07770    0.53020    1.000
    H15      H        0.30350    0.13050    0.55020    1.000
    C23      C        0.64710    0.50140    0.94050    1.000
    H16      H        0.74570    0.50200    0.90030    1.000
    C24      C        0.60670    0.48240    0.05200    1.000
    H17      H        0.67770    0.47110    0.08700    1.000
    C25      C        0.03840    0.89730    0.57710    1.000
    H18      H        0.06320    0.82760    0.62970    1.000
    O5       O        0.69960    0.57608    0.38190    1.000
    O6       O        0.84130    0.88370    0.02004    1.000
    N8       N        0.04130    0.83560    0.12265    1.000
    N9       N        0.70100    0.07750    0.28950    1.000
    N10      N        0.25120    0.85070    0.43740    1.000
    O7       O        0.72050    0.71260    0.13252    1.000
    C26      C        0.93420    0.75260    0.16300    1.000
    N11      N        0.58220    0.54120    0.77449    1.000
    C27      C        0.92540    0.64860    0.25660    1.000
    N12      N        0.40630    0.68720    0.44595    1.000
    C28      C        0.82160    0.78310    0.10140    1.000
    C29      C        0.12430    0.92630    0.46940    1.000
    N13      N        0.57340    0.53980    0.61584    1.000
    O8       O        0.82530    0.46000    0.27670    1.000
    C30      C        0.59950    0.03790    0.39660    1.000
    C31      C        0.50750    0.50520    0.72230    1.000
    H19      H        0.42100    0.46160    0.75690    1.000
    C32      C        0.45420    0.77770    0.34520    1.000
    H20      H        0.53840    0.77030    0.28950    1.000
    C33      C        0.80510    0.55400    0.30740    1.000
    C34      C        0.70400    0.60120    0.69680    1.000
    H21      H        0.77620    0.63590    0.70850    1.000
    N14      N        0.85430    0.06760    0.13150    1.000
    C35      C        0.54050    0.51930    0.88950    1.000
    C36      C        0.36030    0.87860    0.33970    1.000
    H22      H        0.36830    0.95250    0.28100    1.000
    C37      C        0.69760    0.59940    0.59910    1.000
    H23      H        0.76640    0.63320    0.53160    1.000
    C38      C        0.77130    0.00390    0.22820    1.000
    H24      H        0.76200    0.91740    0.25170    1.000
    C39      C        0.74490    0.19780    0.22770    1.000
    H25      H        0.71620    0.26990    0.24800    1.000
    C40      C        0.03330    0.63180    0.30710    1.000
    H26      H        0.02970    0.56470    0.37070    1.000
    C41      C        0.28450    0.73390    0.49890    1.000
    H27      H        0.22800    0.69240    0.56950    1.000
    C42      C        0.83800    0.19020    0.13170    1.000
    H28      H        0.88470    0.25800    0.07390    1.000
    C43      C        0.14620    0.81660    0.17110    1.000
    H29      H        0.22100    0.87340    0.14220    1.000
    C44      C        0.14600    0.71460    0.26310    1.000
    H30      H        0.22080    0.70190    0.29490    1.000
    C45      C        0.08480    0.02870    0.39230    1.000
    H31      H        0.14090    0.04840    0.31930    1.000
    C46      C        0.51750    0.88450    0.57320    1.000
    H32      H        0.52970    0.80610    0.62230    1.000
    C47      C        0.61730    0.92230    0.46980    1.000
    H33      H        0.69650    0.86950    0.44980    1.000
    C48      C        0.35290    0.49860    0.05950    1.000
    H34      H        0.25430    0.49800    0.09970    1.000
    C49      C        0.39330    0.51760    0.94800    1.000
    H35      H        0.32230    0.52890    0.91300    1.000
    C50      C        0.96160    0.10270    0.42290    1.000
    H36      H        0.93680    0.17240    0.37030    1.000
    Co1      Co       0.50000    0.50000    0.50000    1.000
    Co2      Co       0.00000    0.00000    0.00000    1.000
