# CIF file generated by openbabel 3.1.0, see https://openbabel.org
data_I
_chemical_name_common 'image0'
_cell_length_a 7.4083
_cell_length_b 10.89
_cell_length_c 13.632
_cell_angle_alpha 66.67
_cell_angle_beta 78.17
_cell_angle_gamma 71.78
_space_group_name_H-M_alt 'P 1'
_space_group_name_Hall 'P 1'
loop_
    _symmetry_equiv_pos_as_xyz
    x,y,z
loop_
    _atom_site_label
    _atom_site_type_symbol
    _atom_site_fract_x
    _atom_site_fract_y
    _atom_site_fract_z
    _atom_site_occupancy
    O1       O        0.83510    0.70163    0.95828    1.000
    N1       N        0.68910    0.47920    0.01587    1.000
    N2       N        0.97560    0.48660    0.16161    1.000
    C1       C        0.65930    0.72760    0.95287    1.000
    C2       C        0.61390    0.37090    0.04385    1.000
    C3       C        0.57640    0.60710    0.97337    1.000
    C4       C        0.96360    0.37060    0.24480    1.000
    C5       C        0.98660    0.59490    0.18300    1.000
    O2       O        0.54020    0.84233    0.93736    1.000
    C6       C        0.74670    0.22820    0.09390    1.000
    H1       H        0.95410    0.29380    0.23130    1.000
    C7       C        0.96430    0.35780    0.35020    1.000
    C8       C        0.99080    0.59070    0.28510    1.000
    H2       H        0.99180    0.67870    0.12450    1.000
    O3       O        0.85960    0.18140    0.02686    1.000
    O4       O        0.73600    0.17640    0.19354    1.000
    H3       H        0.95260    0.27390    0.40700    1.000
    C9       C        0.98210    0.46740    0.37330    1.000
    H4       H        0.99950    0.66960    0.29590    1.000
    N3       N        0.50090    0.85360    0.16128    1.000
    C10      C        0.98940    0.45260    0.48400    1.000
    C11      C        0.44090    0.73840    0.18920    1.000
    C12      C        0.56000    0.87470    0.23870    1.000
    H5       H        0.97780    0.36690    0.53830    1.000
    H6       H        0.39570    0.72360    0.13550    1.000
    C13      C        0.44160    0.64040    0.29210    1.000
    C14      C        0.56000    0.78370    0.34420    1.000
    H7       H        0.60350    0.95500    0.22040    1.000
    H8       H        0.40120    0.55950    0.30750    1.000
    C15      C        0.50260    0.66200    0.37320    1.000
    H9       H        0.59900    0.80400    0.39710    1.000
    C16      C        0.50720    0.56560    0.48390    1.000
    H10      H        0.52140    0.59710    0.53700    1.000
    O5       O        0.16490    0.29837    0.04172    1.000
    N4       N        0.31090    0.52080    0.98413    1.000
    N5       N        0.02440    0.51340    0.83839    1.000
    C17      C        0.34070    0.27240    0.04713    1.000
    C18      C        0.38610    0.62910    0.95615    1.000
    C19      C        0.42360    0.39290    0.02663    1.000
    C20      C        0.03640    0.62940    0.75520    1.000
    C21      C        0.01340    0.40510    0.81700    1.000
    O6       O        0.45980    0.15767    0.06264    1.000
    C22      C        0.25330    0.77180    0.90610    1.000
    H11      H        0.04590    0.70620    0.76870    1.000
    C23      C        0.03570    0.64220    0.64980    1.000
    C24      C        0.00920    0.40930    0.71490    1.000
    H12      H        0.00820    0.32130    0.87550    1.000
    O7       O        0.14040    0.81860    0.97314    1.000
    O8       O        0.26400    0.82360    0.80646    1.000
    H13      H        0.04740    0.72610    0.59300    1.000
    C25      C        0.01790    0.53260    0.62670    1.000
    H14      H        0.00050    0.33040    0.70410    1.000
    N6       N        0.49910    0.14640    0.83872    1.000
    C26      C        0.01060    0.54740    0.51600    1.000
    C27      C        0.55910    0.26160    0.81080    1.000
    C28      C        0.44000    0.12530    0.76130    1.000
    H15      H        0.02220    0.63310    0.46170    1.000
    H16      H        0.60430    0.27640    0.86450    1.000
    C29      C        0.55840    0.35960    0.70790    1.000
    C30      C        0.44000    0.21630    0.65580    1.000
    H17      H        0.39650    0.04500    0.77960    1.000
    H18      H        0.59880    0.44050    0.69250    1.000
    C31      C        0.49740    0.33800    0.62680    1.000
    H19      H        0.40100    0.19600    0.60290    1.000
    C32      C        0.49280    0.43440    0.51610    1.000
    H20      H        0.47860    0.40290    0.46300    1.000
    Zn1      Zn       0.00000    0.50000    0.00000    1.000
    Zn2      Zn       0.50000    0.00000    0.00000    1.000
