# CIF file generated by openbabel 3.1.0, see https://openbabel.org
data_I
_chemical_name_common 'TIPZOJ_clean'
_cell_length_a 11.791
_cell_length_b 22.691
_cell_length_c 11.922
_cell_angle_alpha 102.046
_cell_angle_beta 90
_cell_angle_gamma 90
_space_group_name_H-M_alt 'P 1'
_space_group_name_Hall 'P 1'
loop_
    _symmetry_equiv_pos_as_xyz
    x,y,z
loop_
    _atom_site_label
    _atom_site_type_symbol
    _atom_site_fract_x
    _atom_site_fract_y
    _atom_site_fract_z
    _atom_site_occupancy
    Ag1      Ag       0.73955    0.29921    0.56326    1.000
    Ag2      Ag       0.67597    0.15927    0.54659    1.000
    Ag3      Ag       0.23969    0.61062    0.22534    1.000
    Ag4      Ag       0.76045    0.29921    0.06326    1.000
    Ag5      Ag       0.68042    0.27963    0.80976    1.000
    Ag6      Ag       0.96414    0.34244    0.87943    1.000
    Ag7      Ag       0.26031    0.61062    0.72534    1.000
    Ag8      Ag       0.82403    0.15927    0.04659    1.000
    Ag9      Ag       0.17597    0.84073    0.95341    1.000
    Ag10     Ag       0.31958    0.72037    0.19024    1.000
    Ag11     Ag       0.34890    0.79788    0.65839    1.000
    Ag12     Ag       0.76031    0.38938    0.77466    1.000
    Ag13     Ag       0.46414    0.65756    0.62057    1.000
    Ag14     Ag       0.33135    0.90092    0.14883    1.000
    Ag15     Ag       0.84890    0.20212    0.84161    1.000
    Ag16     Ag       0.18042    0.72037    0.69024    1.000
    Ag17     Ag       0.83135    0.09908    0.35117    1.000
    Ag18     Ag       0.15110    0.79788    0.15839    1.000
    Ag19     Ag       0.66865    0.09908    0.85117    1.000
    Ag20     Ag       0.26045    0.70079    0.43674    1.000
    Ag21     Ag       0.32403    0.84073    0.45341    1.000
    Ag22     Ag       0.23955    0.70079    0.93674    1.000
    Ag23     Ag       0.73969    0.38938    0.27466    1.000
    Ag24     Ag       0.81958    0.27963    0.30976    1.000
    Ag25     Ag       0.53586    0.34244    0.37943    1.000
    Ag26     Ag       0.65110    0.20212    0.34161    1.000
    Ag27     Ag       0.03586    0.65756    0.12057    1.000
    Ag28     Ag       0.16865    0.90092    0.64883    1.000
    H1       H        0.11460    0.48220    0.23810    1.000
    H2       H        0.34270    0.00240    0.55960    1.000
    H3       H        0.65730    0.99760    0.44040    1.000
    H4       H        0.40680    0.24020    0.17420    1.000
    H5       H        0.56580    0.81310    0.02090    1.000
    H6       H        0.48330    0.06930    0.62420    1.000
    H7       H        0.15730    0.00240    0.05960    1.000
    H8       H        0.38540    0.48220    0.73810    1.000
    H9       H        0.04810    0.39440    0.13110    1.000
    H10      H        0.06580    0.18690    0.47910    1.000
    H11      H        0.45190    0.39440    0.63110    1.000
    H12      H        0.00300    0.16010    0.57290    1.000
    H13      H        0.43420    0.18690    0.97910    1.000
    H14      H        0.98330    0.93070    0.87580    1.000
    H15      H        0.37240    0.44920    0.35280    1.000
    H16      H        0.50300    0.83990    0.92710    1.000
    H17      H        0.56420    0.71970    0.91420    1.000
    H18      H        0.06420    0.28030    0.58580    1.000
    H19      H        0.51670    0.93070    0.37580    1.000
    H20      H        0.93580    0.71970    0.41420    1.000
    H21      H        0.49700    0.16010    0.07290    1.000
    H22      H        0.48660    0.01590    0.91240    1.000
    H23      H        0.01670    0.06930    0.12420    1.000
    H24      H        0.12760    0.44920    0.85280    1.000
    H25      H        0.99700    0.83990    0.42710    1.000
    H26      H        0.54810    0.60560    0.36890    1.000
    H27      H        0.93420    0.81310    0.52090    1.000
    H28      H        0.90680    0.75980    0.32580    1.000
    H29      H        0.88540    0.51780    0.76190    1.000
    H30      H        0.61460    0.51780    0.26190    1.000
    H31      H        0.95190    0.60560    0.86890    1.000
    H32      H        0.43580    0.28030    0.08580    1.000
    H33      H        0.98660    0.98410    0.58760    1.000
    H34      H        0.84270    0.99760    0.94040    1.000
    H35      H        0.87240    0.55080    0.14720    1.000
    H36      H        0.62760    0.55080    0.64720    1.000
    H37      H        0.01340    0.01590    0.41240    1.000
    H38      H        0.09320    0.24020    0.67420    1.000
    H39      H        0.59320    0.75980    0.82580    1.000
    H40      H        0.51340    0.98410    0.08760    1.000
    C1       C        0.12740    0.97220    0.30040    1.000
    C2       C        0.67600    0.06560    0.12270    1.000
    C3       C        0.62740    0.02780    0.19960    1.000
    C4       C        0.62080    0.54390    0.56780    1.000
    C5       C        0.16800    0.10700    0.84970    1.000
    C6       C        0.84190    0.48960    0.00340    1.000
    C7       C        0.06210    0.72480    0.30580    1.000
    C8       C        0.15300    0.70420    0.26580    1.000
    C9       C        0.30570    0.79400    0.06280    1.000
    C10      C        0.65810    0.48960    0.50340    1.000
    C11      C        0.88430    0.52340    0.84140    1.000
    C12      C        0.93790    0.27520    0.69420    1.000
    C13      C        0.38430    0.47660    0.65860    1.000
    C14      C        0.69860    0.44060    0.56080    1.000
    C15      C        0.12080    0.45610    0.93220    1.000
    C16      C        0.32400    0.93440    0.87730    1.000
    C17      C        0.53420    0.75000    0.87560    1.000
    C18      C        0.55080    0.86650    0.62100    1.000
    C19      C        0.04330    0.04440    0.17130    1.000
    C20      C        0.62860    0.99580    0.36720    1.000
    C21      C        0.89650    0.19800    0.47650    1.000
    C22      C        0.92430    0.57630    0.90570    1.000
    C23      C        0.87260    0.02780    0.69960    1.000
    C24      C        0.00560    0.19430    0.53580    1.000
    C25      C        0.19430    0.79400    0.56280    1.000
    C26      C        0.69430    0.20600    0.93720    1.000
    C27      C        0.43790    0.72480    0.80580    1.000
    C28      C        0.04140    0.01330    0.33850    1.000
    C29      C        0.30140    0.55940    0.43920    1.000
    C30      C        0.05080    0.13350    0.87900    1.000
    C31      C        0.65300    0.29580    0.23420    1.000
    C32      C        0.03420    0.25000    0.62440    1.000
    C33      C        0.07570    0.42370    0.09430    1.000
    C34      C        0.45670    0.04440    0.67130    1.000
    C35      C        0.94920    0.86650    0.12100    1.000
    C36      C        0.60350    0.19800    0.97650    1.000
    C37      C        0.37140    0.00420    0.63280    1.000
    C38      C        0.34190    0.51040    0.49660    1.000
    C39      C        0.44920    0.13350    0.37900    1.000
    C40      C        0.87920    0.54390    0.06780    1.000
    C41      C        0.54140    0.98670    0.16150    1.000
    C42      C        0.50560    0.80570    0.96420    1.000
    C43      C        0.80570    0.20600    0.43720    1.000
    C44      C        0.96580    0.75000    0.37560    1.000
    C45      C        0.87140    0.99580    0.86720    1.000
    C46      C        0.84700    0.29580    0.73420    1.000
    C47      C        0.80140    0.44060    0.06080    1.000
    C48      C        0.54330    0.95560    0.32870    1.000
    C49      C        0.10350    0.80200    0.52350    1.000
    C50      C        0.12860    0.00420    0.13280    1.000
    C51      C        0.15810    0.51040    0.99660    1.000
    C52      C        0.33200    0.10700    0.34970    1.000
    C53      C        0.45860    0.01330    0.83850    1.000
    C54      C        0.34700    0.70420    0.76580    1.000
    C55      C        0.46580    0.25000    0.12440    1.000
    C56      C        0.49440    0.19430    0.03580    1.000
    C57      C        0.37920    0.45610    0.43220    1.000
    C58      C        0.57570    0.57630    0.40570    1.000
    C59      C        0.61570    0.52340    0.34140    1.000
    C60      C        0.37260    0.97220    0.80040    1.000
    C61      C        0.42430    0.42370    0.59430    1.000
    C62      C        0.17600    0.93440    0.37730    1.000
    C63      C        0.19860    0.55940    0.93920    1.000
    C64      C        0.11570    0.47660    0.15860    1.000
    C65      C        0.99440    0.80570    0.46420    1.000
    C66      C        0.95670    0.95560    0.82870    1.000
    C67      C        0.82400    0.06560    0.62270    1.000
    C68      C        0.39650    0.80200    0.02350    1.000
    C69      C        0.95860    0.98670    0.66150    1.000
    C70      C        0.66800    0.89300    0.65030    1.000
    C71      C        0.83200    0.89300    0.15030    1.000
    C72      C        0.56210    0.27520    0.19420    1.000
    N1       N        0.49760    0.95160    0.22440    1.000
    N2       N        0.67210    0.03240    0.30480    1.000
    N3       N        0.17210    0.96760    0.19520    1.000
    N4       N        0.42450    0.41330    0.47950    1.000
    N5       N        0.65590    0.47960    0.38900    1.000
    N6       N        0.15590    0.52040    0.11100    1.000
    N7       N        0.34410    0.52040    0.61100    1.000
    N8       N        0.50240    0.04840    0.77560    1.000
    N9       N        0.92450    0.58670    0.02050    1.000
    N10      N        0.82790    0.03240    0.80480    1.000
    N11      N        0.99760    0.04840    0.27560    1.000
    N12      N        0.84410    0.47960    0.88900    1.000
    N13      N        0.07550    0.41330    0.97950    1.000
    N14      N        0.32790    0.96760    0.69520    1.000
    N15      N        0.00240    0.95160    0.72440    1.000
    N16      N        0.57550    0.58670    0.52050    1.000
    O1       O        0.19960    0.61180    0.99750    1.000
    O2       O        0.00470    0.12480    0.96390    1.000
    O3       O        0.74910    0.10430    0.16460    1.000
    O4       O        0.75090    0.10430    0.66460    1.000
    O5       O        0.50470    0.87520    0.53610    1.000
    O6       O        0.64050    0.05550    0.02340    1.000
    O7       O        0.25090    0.89570    0.83540    1.000
    O8       O        0.51590    0.83660    0.69260    1.000
    O9       O        0.99530    0.87520    0.03610    1.000
    O10      O        0.98410    0.83660    0.19260    1.000
    O11      O        0.14050    0.94450    0.47660    1.000
    O12      O        0.01590    0.16340    0.80740    1.000
    O13      O        0.72210    0.45710    0.66300    1.000
    O14      O        0.24910    0.89570    0.33540    1.000
    O15      O        0.22210    0.54290    0.83700    1.000
    O16      O        0.30040    0.61180    0.49750    1.000
    O17      O        0.85950    0.05550    0.52340    1.000
    O18      O        0.27790    0.54290    0.33700    1.000
    O19      O        0.80040    0.38820    0.00250    1.000
    O20      O        0.48410    0.16340    0.30740    1.000
    O21      O        0.49530    0.12480    0.46390    1.000
    O22      O        0.69960    0.38820    0.50250    1.000
    O23      O        0.35950    0.94450    0.97660    1.000
    O24      O        0.77790    0.45710    0.16300    1.000
    F1       F        0.32360    0.07980    0.24270    1.000
    F2       F        0.82360    0.92020    0.25730    1.000
    F3       F        0.18740    0.06360    0.89430    1.000
    F4       F        0.68740    0.93640    0.60570    1.000
    F5       F        0.67640    0.92020    0.75730    1.000
    F6       F        0.17640    0.07980    0.74270    1.000
    F7       F        0.31260    0.06360    0.39430    1.000
    F8       F        0.74480    0.85720    0.64220    1.000
    F9       F        0.24480    0.14280    0.85780    1.000
    F10      F        0.81260    0.93640    0.10570    1.000
    F11      F        0.75520    0.85720    0.14220    1.000
    F12      F        0.25520    0.14280    0.35780    1.000
