# CIF file generated by openbabel 3.1.0, see https://openbabel.org
data_I
_chemical_name_common 'image0'
_cell_length_a 16.2107
_cell_length_b 14.9781
_cell_length_c 7.9573
_cell_angle_alpha 90
_cell_angle_beta 92.069
_cell_angle_gamma 90
_space_group_name_H-M_alt 'P 1'
_space_group_name_Hall 'P 1'
loop_
    _symmetry_equiv_pos_as_xyz
    x,y,z
loop_
    _atom_site_label
    _atom_site_type_symbol
    _atom_site_fract_x
    _atom_site_fract_y
    _atom_site_fract_z
    _atom_site_occupancy
    Ag1      Ag       0.02698    0.25929    0.39979    1.000
    Ho1      Ho       0.54522    0.38374    0.94987    1.000
    C1       C        0.86700    0.32810    0.54060    1.000
    H1       H        0.89390    0.38210    0.52450    1.000
    C2       C        0.78870    0.32900    0.60530    1.000
    H2       H        0.76400    0.38280    0.63350    1.000
    C3       C        0.74730    0.24860    0.62780    1.000
    C4       C        0.78710    0.17020    0.58550    1.000
    H3       H        0.76120    0.11540    0.59910    1.000
    C5       C        0.86560    0.17420    0.52280    1.000
    H4       H        0.89180    0.12120    0.49520    1.000
    C6       C        0.66240    0.24910    0.69770    1.000
    C7       C        0.21190    0.25280    0.29400    1.000
    H5       H        0.20930    0.19290    0.32380    1.000
    C8       C        0.28580    0.28690    0.24300    1.000
    H6       H        0.33230    0.25060    0.23870    1.000
    C9       C        0.29000    0.37650    0.19800    1.000
    C10      C        0.21960    0.42740    0.20610    1.000
    H7       H        0.22070    0.48750    0.17720    1.000
    C11      C        0.14760    0.38870    0.25720    1.000
    H8       H        0.10020    0.42360    0.26050    1.000
    C12      C        0.36830    0.41870    0.13960    1.000
    C13      C        0.43090    0.45830    0.71360    1.000
    C14      C        0.36470    0.49320    0.59610    1.000
    H9       H        0.32730    0.44570    0.56530    1.000
    H10      H        0.33510    0.53990    0.65050    1.000
    H11      H        0.38910    0.51640    0.49710    1.000
    N1       N        0.90521    0.25170    0.50030    1.000
    N2       N        0.14330    0.30290    0.30230    1.000
    O1       O        0.64109    0.31544    0.78110    1.000
    O2       O        0.61712    0.18110    0.66850    1.000
    O3       O        0.42521    0.36697    0.09580    1.000
    O4       O        0.37096    0.50296    0.14130    1.000
    O5       O        0.45136    0.50266    0.84300    1.000
    O6       O        0.46593    0.38475    0.68750    1.000
    Ag2      Ag       0.97302    0.75929    0.10021    1.000
    Ho2      Ho       0.45478    0.88374    0.55013    1.000
    C15      C        0.13300    0.82810    0.95940    1.000
    H12      H        0.10610    0.88210    0.97550    1.000
    C16      C        0.21130    0.82900    0.89470    1.000
    H13      H        0.23600    0.88280    0.86650    1.000
    C17      C        0.25270    0.74860    0.87220    1.000
    C18      C        0.21290    0.67020    0.91450    1.000
    H14      H        0.23880    0.61540    0.90090    1.000
    C19      C        0.13440    0.67420    0.97720    1.000
    H15      H        0.10820    0.62120    0.00480    1.000
    C20      C        0.33760    0.74910    0.80230    1.000
    C21      C        0.78810    0.75280    0.20600    1.000
    H16      H        0.79070    0.69290    0.17620    1.000
    C22      C        0.71420    0.78690    0.25700    1.000
    H17      H        0.66770    0.75060    0.26130    1.000
    C23      C        0.71000    0.87650    0.30200    1.000
    C24      C        0.78040    0.92740    0.29390    1.000
    H18      H        0.77930    0.98750    0.32280    1.000
    C25      C        0.85240    0.88870    0.24280    1.000
    H19      H        0.89980    0.92360    0.23950    1.000
    C26      C        0.63170    0.91870    0.36040    1.000
    C27      C        0.56910    0.95830    0.78640    1.000
    C28      C        0.63530    0.99320    0.90390    1.000
    H20      H        0.67270    0.94570    0.93470    1.000
    H21      H        0.66490    0.03990    0.84950    1.000
    H22      H        0.61090    0.01640    0.00290    1.000
    N3       N        0.09479    0.75170    0.99970    1.000
    N4       N        0.85670    0.80290    0.19770    1.000
    O7       O        0.35891    0.81544    0.71890    1.000
    O8       O        0.38288    0.68110    0.83150    1.000
    O9       O        0.57479    0.86697    0.40420    1.000
    O10      O        0.62904    0.00296    0.35870    1.000
    O11      O        0.54864    0.00266    0.65700    1.000
    O12      O        0.53407    0.88475    0.81250    1.000
    Ag3      Ag       0.97302    0.74071    0.60021    1.000
    Ho3      Ho       0.45478    0.61626    0.05013    1.000
    C29      C        0.13300    0.67190    0.45940    1.000
    H23      H        0.10610    0.61790    0.47550    1.000
    C30      C        0.21130    0.67100    0.39470    1.000
    H24      H        0.23600    0.61720    0.36650    1.000
    C31      C        0.25270    0.75140    0.37220    1.000
    C32      C        0.21290    0.82980    0.41450    1.000
    H25      H        0.23880    0.88460    0.40090    1.000
    C33      C        0.13440    0.82580    0.47720    1.000
    H26      H        0.10820    0.87880    0.50480    1.000
    C34      C        0.33760    0.75090    0.30230    1.000
    C35      C        0.78810    0.74720    0.70600    1.000
    H27      H        0.79070    0.80710    0.67620    1.000
    C36      C        0.71420    0.71310    0.75700    1.000
    H28      H        0.66770    0.74940    0.76130    1.000
    C37      C        0.71000    0.62350    0.80200    1.000
    C38      C        0.78040    0.57260    0.79390    1.000
    H29      H        0.77930    0.51250    0.82280    1.000
    C39      C        0.85240    0.61130    0.74280    1.000
    H30      H        0.89980    0.57640    0.73950    1.000
    C40      C        0.63170    0.58130    0.86040    1.000
    C41      C        0.56910    0.54170    0.28640    1.000
    C42      C        0.63530    0.50680    0.40390    1.000
    H31      H        0.67270    0.55430    0.43470    1.000
    H32      H        0.66490    0.46010    0.34950    1.000
    H33      H        0.61090    0.48360    0.50290    1.000
    N5       N        0.09479    0.74830    0.49970    1.000
    N6       N        0.85670    0.69710    0.69770    1.000
    O13      O        0.35891    0.68456    0.21890    1.000
    O14      O        0.38288    0.81890    0.33150    1.000
    O15      O        0.57479    0.63303    0.90420    1.000
    O16      O        0.62904    0.49704    0.85870    1.000
    O17      O        0.54864    0.49734    0.15700    1.000
    O18      O        0.53407    0.61525    0.31250    1.000
    Ag4      Ag       0.02698    0.24071    0.89979    1.000
    Ho4      Ho       0.54522    0.11626    0.44987    1.000
    C43      C        0.86700    0.17190    0.04060    1.000
    H34      H        0.89390    0.11790    0.02450    1.000
    C44      C        0.78870    0.17100    0.10530    1.000
    H35      H        0.76400    0.11720    0.13350    1.000
    C45      C        0.74730    0.25140    0.12780    1.000
    C46      C        0.78710    0.32980    0.08550    1.000
    H36      H        0.76120    0.38460    0.09910    1.000
    C47      C        0.86560    0.32580    0.02280    1.000
    H37      H        0.89180    0.37880    0.99520    1.000
    C48      C        0.66240    0.25090    0.19770    1.000
    C49      C        0.21190    0.24720    0.79400    1.000
    H38      H        0.20930    0.30710    0.82380    1.000
    C50      C        0.28580    0.21310    0.74300    1.000
    H39      H        0.33230    0.24940    0.73870    1.000
    C51      C        0.29000    0.12350    0.69800    1.000
    C52      C        0.21960    0.07260    0.70610    1.000
    H40      H        0.22070    0.01250    0.67720    1.000
    C53      C        0.14760    0.11130    0.75720    1.000
    H41      H        0.10020    0.07640    0.76050    1.000
    C54      C        0.36830    0.08130    0.63960    1.000
    C55      C        0.43090    0.04170    0.21360    1.000
    C56      C        0.36470    0.00680    0.09610    1.000
    H42      H        0.32730    0.05430    0.06530    1.000
    H43      H        0.33510    0.96010    0.15050    1.000
    H44      H        0.38910    0.98360    0.99710    1.000
    N7       N        0.90521    0.24830    0.00030    1.000
    N8       N        0.14330    0.19710    0.80230    1.000
    O19      O        0.64109    0.18456    0.28110    1.000
    O20      O        0.61712    0.31890    0.16850    1.000
    O21      O        0.42521    0.13303    0.59580    1.000
    O22      O        0.37096    0.99704    0.64130    1.000
    O23      O        0.45136    0.99734    0.34300    1.000
    O24      O        0.46593    0.11525    0.18750    1.000
