# CIF file generated by openbabel 3.1.0, see https://openbabel.org
data_I
_chemical_name_common 'image0'
_cell_length_a 6.8431
_cell_length_b 8.9881
_cell_length_c 9.9755
_cell_angle_alpha 102.096
_cell_angle_beta 100.554
_cell_angle_gamma 110.17
_space_group_name_H-M_alt 'P 1'
_space_group_name_Hall 'P 1'
loop_
    _symmetry_equiv_pos_as_xyz
    x,y,z
loop_
    _atom_site_label
    _atom_site_type_symbol
    _atom_site_fract_x
    _atom_site_fract_y
    _atom_site_fract_z
    _atom_site_occupancy
    O1       O        0.57877    0.85261    0.26684    1.000
    C1       C        0.65591    0.92590    0.39436    1.000
    O2       O        0.36966    0.47957    0.86504    1.000
    O3       O        0.03347    0.40874    0.87783    1.000
    C2       C        0.16814    0.41054    0.80693    1.000
    C3       C        0.08447    0.32821    0.64917    1.000
    C4       C        0.91053    0.17428    0.59723    1.000
    C5       C        0.83334    0.09416    0.45087    1.000
    Ca1      Ca       0.31483    0.58486    0.10992    1.000
    O4       O        0.32522    0.55818    0.35310    1.000
    O5       O        0.14025    0.32791    0.17662    1.000
    O6       O        0.59329    0.86312    0.49468    1.000
    C6       C        0.09664    0.32568    0.40844    1.000
    C7       C        0.19407    0.40883    0.30724    1.000
    C8       C        0.17772    0.40415    0.55519    1.000
    H1       H        0.29390    0.50700    0.59020    1.000
    H2       H        0.84600    0.12500    0.66000    1.000
    C9       C        0.92582    0.17007    0.35647    1.000
    H3       H        0.87340    0.11680    0.25880    1.000
    O7       O        0.42123    0.14739    0.73316    1.000
    C10      C        0.34409    0.07410    0.60564    1.000
    O8       O        0.63034    0.52043    0.13496    1.000
    O9       O        0.96653    0.59126    0.12217    1.000
    C11      C        0.83186    0.58946    0.19307    1.000
    C12      C        0.91553    0.67179    0.35083    1.000
    C13      C        0.08947    0.82572    0.40277    1.000
    C14      C        0.16666    0.90584    0.54913    1.000
    Ca2      Ca       0.68517    0.41514    0.89008    1.000
    O10      O        0.67478    0.44182    0.64690    1.000
    O11      O        0.85975    0.67209    0.82338    1.000
    O12      O        0.40671    0.13688    0.50532    1.000
    C15      C        0.90336    0.67432    0.59156    1.000
    C16      C        0.80593    0.59117    0.69276    1.000
    C17      C        0.82228    0.59585    0.44481    1.000
    H4       H        0.70610    0.49300    0.40980    1.000
    H5       H        0.15400    0.87500    0.34000    1.000
    C18      C        0.07418    0.82993    0.64353    1.000
    H6       H        0.12660    0.88320    0.74120    1.000
