# CIF file generated by openbabel 3.1.0, see https://openbabel.org
data_I
_chemical_name_common 'image0'
_cell_length_a 14.261
_cell_length_b 16.664
_cell_length_c 26.16
_cell_angle_alpha 90
_cell_angle_beta 90
_cell_angle_gamma 90
_space_group_name_H-M_alt 'P 1'
_space_group_name_Hall 'P 1'
loop_
    _symmetry_equiv_pos_as_xyz
    x,y,z
loop_
    _atom_site_label
    _atom_site_type_symbol
    _atom_site_fract_x
    _atom_site_fract_y
    _atom_site_fract_z
    _atom_site_occupancy
    Zn1      Zn       0.77524    0.07662    0.89130    1.000
    Zn2      Zn       0.93625    0.93611    0.90648    1.000
    O1       O        0.86641    0.13696    0.93974    1.000
    O2       O        0.95780    0.02908    0.94996    1.000
    O3       O        0.17499    0.34307    0.09864    1.000
    O4       O        0.24630    0.23159    0.12427    1.000
    O5       O        0.03334    0.86891    0.93712    1.000
    O6       O        0.97393    0.76413    0.89596    1.000
    O7       O        0.31490    0.60655    0.07781    1.000
    O8       O        0.23092    0.50009    0.05188    1.000
    O9       O        0.54497    0.03877    0.33536    1.000
    O10      O        0.62672    0.92395    0.33501    1.000
    N1       N        0.27668    0.86094    0.06951    1.000
    N2       N        0.18260    0.97113    0.04024    1.000
    N3       N        0.29067    0.99206    0.10858    1.000
    N4       N        0.38299    0.88211    0.13292    1.000
    H1       H        0.40200    0.83590    0.12260    1.000
    N5       N        0.16430    0.84924    0.00435    1.000
    H2       H        0.13440    0.87760    0.98220    1.000
    N6       N        0.19984    0.09593    0.07925    1.000
    H3       H        0.23260    0.12330    0.10060    1.000
    C1       C        0.31446    0.91483    0.10384    1.000
    C2       C        0.21110    0.89334    0.04007    1.000
    C3       C        0.22420    0.01633    0.07527    1.000
    C4       C        0.13040    0.13881    0.05397    1.000
    C5       C        0.06960    0.10285    0.01950    1.000
    H4       H        0.07610    0.04850    0.01230    1.000
    C6       C        0.99930    0.14649    0.99549    1.000
    C7       C        0.98840    0.22774    0.00480    1.000
    H5       H        0.94100    0.25700    0.98900    1.000
    C8       C        0.05130    0.26458    0.03880    1.000
    H6       H        0.04620    0.31940    0.04480    1.000
    C9       C        0.12050    0.22148    0.06368    1.000
    C10      C        0.93560    0.10138    0.95765    1.000
    C11      C        0.18590    0.26851    0.09789    1.000
    C12      C        0.15570    0.76670    0.99697    1.000
    C13      C        0.08920    0.73803    0.95998    1.000
    C14      C        0.08030    0.65695    0.95311    1.000
    H7       H        0.03970    0.63860    0.92790    1.000
    C15      C        0.12950    0.60018    0.98228    1.000
    H8       H        0.11980    0.54540    0.97780    1.000
    C16      C        0.19420    0.62919    0.01858    1.000
    C17      C        0.20820    0.71189    0.02434    1.000
    H9       H        0.25370    0.73020    0.04700    1.000
    C18      C        0.02720    0.79201    0.92785    1.000
    C19      C        0.24990    0.57394    0.05118    1.000
    C20      C        0.42820    0.91014    0.17665    1.000
    C21      C        0.50130    0.86310    0.19593    1.000
    H10      H        0.51950    0.81720    0.17830    1.000
    C22      C        0.54640    0.88310    0.24006    1.000
    H11      H        0.59390    0.85010    0.25240    1.000
    C23      C        0.52260    0.95205    0.26692    1.000
    C24      C        0.44990    0.99810    0.24784    1.000
    H12      H        0.43140    0.04370    0.26580    1.000
    C25      C        0.40340    0.97860    0.20274    1.000
    H13      H        0.35600    0.01160    0.19030    1.000
    C26      C        0.56780    0.97261    0.31588    1.000
    Zn3      Zn       0.72476    0.92338    0.39129    1.000
    Zn4      Zn       0.56375    0.06389    0.40648    1.000
    O11      O        0.63359    0.86304    0.43974    1.000
    O12      O        0.54220    0.97092    0.44996    1.000
    O13      O        0.32501    0.65693    0.59864    1.000
    O14      O        0.25370    0.76841    0.62427    1.000
    O15      O        0.46666    0.13109    0.43712    1.000
    O16      O        0.52607    0.23587    0.39596    1.000
    O17      O        0.18510    0.39345    0.57781    1.000
    O18      O        0.26908    0.49991    0.55188    1.000
    O19      O        0.95503    0.96123    0.83536    1.000
    O20      O        0.87328    0.07605    0.83501    1.000
    N7       N        0.22332    0.13906    0.56951    1.000
    N8       N        0.31740    0.02887    0.54024    1.000
    N9       N        0.20933    0.00794    0.60858    1.000
    N10      N        0.11701    0.11789    0.63292    1.000
    H14      H        0.09800    0.16410    0.62260    1.000
    N11      N        0.33570    0.15076    0.50435    1.000
    H15      H        0.36560    0.12240    0.48220    1.000
    N12      N        0.30016    0.90407    0.57925    1.000
    H16      H        0.26740    0.87670    0.60060    1.000
    C27      C        0.18554    0.08517    0.60384    1.000
    C28      C        0.28890    0.10666    0.54007    1.000
    C29      C        0.27580    0.98367    0.57527    1.000
    C30      C        0.36960    0.86119    0.55397    1.000
    C31      C        0.43040    0.89715    0.51950    1.000
    H17      H        0.42390    0.95150    0.51230    1.000
    C32      C        0.50070    0.85351    0.49549    1.000
    C33      C        0.51160    0.77226    0.50480    1.000
    H18      H        0.55900    0.74300    0.48900    1.000
    C34      C        0.44870    0.73542    0.53880    1.000
    H19      H        0.45380    0.68060    0.54480    1.000
    C35      C        0.37950    0.77852    0.56368    1.000
    C36      C        0.56440    0.89862    0.45765    1.000
    C37      C        0.31410    0.73149    0.59789    1.000
    C38      C        0.34430    0.23330    0.49697    1.000
    C39      C        0.41080    0.26197    0.45998    1.000
    C40      C        0.41970    0.34305    0.45311    1.000
    H20      H        0.46030    0.36140    0.42790    1.000
    C41      C        0.37050    0.39982    0.48228    1.000
    H21      H        0.38020    0.45460    0.47780    1.000
    C42      C        0.30580    0.37081    0.51858    1.000
    C43      C        0.29180    0.28811    0.52434    1.000
    H22      H        0.24630    0.26980    0.54700    1.000
    C44      C        0.47280    0.20799    0.42785    1.000
    C45      C        0.25010    0.42606    0.55118    1.000
    C46      C        0.07180    0.08986    0.67665    1.000
    C47      C        0.99870    0.13690    0.69593    1.000
    H23      H        0.98050    0.18280    0.67830    1.000
    C48      C        0.95360    0.11690    0.74006    1.000
    H24      H        0.90610    0.14990    0.75240    1.000
    C49      C        0.97740    0.04795    0.76692    1.000
    C50      C        0.05010    0.00190    0.74784    1.000
    H25      H        0.06860    0.95630    0.76580    1.000
    C51      C        0.09660    0.02140    0.70274    1.000
    H26      H        0.14400    0.98840    0.69030    1.000
    C52      C        0.93220    0.02739    0.81588    1.000
    Zn5      Zn       0.22476    0.57662    0.60871    1.000
    Zn6      Zn       0.06375    0.43611    0.59352    1.000
    O21      O        0.13359    0.63696    0.56026    1.000
    O22      O        0.04220    0.52908    0.55004    1.000
    O23      O        0.82501    0.84307    0.40136    1.000
    O24      O        0.75370    0.73159    0.37573    1.000
    O25      O        0.96666    0.36891    0.56288    1.000
    O26      O        0.02607    0.26413    0.60404    1.000
    O27      O        0.68510    0.10655    0.42219    1.000
    O28      O        0.76908    0.00009    0.44812    1.000
    O29      O        0.45503    0.53877    0.16464    1.000
    O30      O        0.37328    0.42395    0.16499    1.000
    N13      N        0.72332    0.36094    0.43049    1.000
    N14      N        0.81740    0.47113    0.45976    1.000
    N15      N        0.70933    0.49206    0.39142    1.000
    N16      N        0.61701    0.38211    0.36708    1.000
    H27      H        0.59800    0.33590    0.37740    1.000
    N17      N        0.83570    0.34924    0.49565    1.000
    H28      H        0.86560    0.37760    0.51780    1.000
    N18      N        0.80016    0.59593    0.42075    1.000
    H29      H        0.76740    0.62330    0.39940    1.000
    C53      C        0.68554    0.41483    0.39616    1.000
    C54      C        0.78890    0.39334    0.45993    1.000
    C55      C        0.77580    0.51633    0.42473    1.000
    C56      C        0.86960    0.63881    0.44603    1.000
    C57      C        0.93040    0.60285    0.48050    1.000
    H30      H        0.92390    0.54850    0.48770    1.000
    C58      C        0.00070    0.64649    0.50451    1.000
    C59      C        0.01160    0.72774    0.49520    1.000
    H31      H        0.05900    0.75700    0.51100    1.000
    C60      C        0.94870    0.76458    0.46120    1.000
    H32      H        0.95380    0.81940    0.45520    1.000
    C61      C        0.87950    0.72148    0.43632    1.000
    C62      C        0.06440    0.60138    0.54235    1.000
    C63      C        0.81410    0.76851    0.40211    1.000
    C64      C        0.84430    0.26670    0.50303    1.000
    C65      C        0.91080    0.23803    0.54002    1.000
    C66      C        0.91970    0.15695    0.54689    1.000
    H33      H        0.96030    0.13860    0.57210    1.000
    C67      C        0.87050    0.10018    0.51772    1.000
    H34      H        0.88020    0.04540    0.52220    1.000
    C68      C        0.80580    0.12919    0.48142    1.000
    C69      C        0.79180    0.21189    0.47566    1.000
    H35      H        0.74630    0.23020    0.45300    1.000
    C70      C        0.97280    0.29201    0.57215    1.000
    C71      C        0.75010    0.07394    0.44882    1.000
    C72      C        0.57180    0.41014    0.32335    1.000
    C73      C        0.49870    0.36310    0.30407    1.000
    H36      H        0.48050    0.31720    0.32170    1.000
    C74      C        0.45360    0.38310    0.25994    1.000
    H37      H        0.40610    0.35010    0.24760    1.000
    C75      C        0.47740    0.45205    0.23308    1.000
    C76      C        0.55010    0.49810    0.25216    1.000
    H38      H        0.56860    0.54370    0.23420    1.000
    C77      C        0.59660    0.47860    0.29726    1.000
    H39      H        0.64400    0.51160    0.30970    1.000
    C78      C        0.43220    0.47261    0.18412    1.000
    Zn7      Zn       0.27524    0.42338    0.10871    1.000
    Zn8      Zn       0.43625    0.56389    0.09352    1.000
    O31      O        0.36641    0.36304    0.06026    1.000
    O32      O        0.45780    0.47092    0.05004    1.000
    O33      O        0.67499    0.15693    0.90136    1.000
    O34      O        0.74630    0.26841    0.87573    1.000
    O35      O        0.53334    0.63109    0.06288    1.000
    O36      O        0.47393    0.73587    0.10404    1.000
    O37      O        0.81490    0.89345    0.92219    1.000
    O38      O        0.73092    0.99991    0.94812    1.000
    O39      O        0.04497    0.46123    0.66464    1.000
    O40      O        0.12672    0.57605    0.66499    1.000
    N19      N        0.77668    0.63906    0.93049    1.000
    N20      N        0.68260    0.52887    0.95976    1.000
    N21      N        0.79067    0.50794    0.89142    1.000
    N22      N        0.88299    0.61789    0.86708    1.000
    H40      H        0.90200    0.66410    0.87740    1.000
    N23      N        0.66430    0.65076    0.99565    1.000
    H41      H        0.63440    0.62240    0.01780    1.000
    N24      N        0.69984    0.40407    0.92075    1.000
    H42      H        0.73260    0.37670    0.89940    1.000
    C79      C        0.81446    0.58517    0.89616    1.000
    C80      C        0.71110    0.60666    0.95993    1.000
    C81      C        0.72420    0.48367    0.92473    1.000
    C82      C        0.63040    0.36119    0.94603    1.000
    C83      C        0.56960    0.39715    0.98050    1.000
    H43      H        0.57610    0.45150    0.98770    1.000
    C84      C        0.49930    0.35351    0.00451    1.000
    C85      C        0.48840    0.27226    0.99520    1.000
    H44      H        0.44100    0.24300    0.01100    1.000
    C86      C        0.55130    0.23542    0.96120    1.000
    H45      H        0.54620    0.18060    0.95520    1.000
    C87      C        0.62050    0.27852    0.93632    1.000
    C88      C        0.43560    0.39862    0.04235    1.000
    C89      C        0.68590    0.23149    0.90211    1.000
    C90      C        0.65570    0.73330    0.00303    1.000
    C91      C        0.58920    0.76197    0.04002    1.000
    C92      C        0.58030    0.84305    0.04689    1.000
    H46      H        0.53970    0.86140    0.07210    1.000
    C93      C        0.62950    0.89982    0.01772    1.000
    H47      H        0.61980    0.95460    0.02220    1.000
    C94      C        0.69420    0.87081    0.98142    1.000
    C95      C        0.70820    0.78811    0.97566    1.000
    H48      H        0.75370    0.76980    0.95300    1.000
    C96      C        0.52720    0.70799    0.07215    1.000
    C97      C        0.74990    0.92606    0.94882    1.000
    C98      C        0.92820    0.58986    0.82335    1.000
    C99      C        0.00130    0.63690    0.80407    1.000
    H49      H        0.01950    0.68280    0.82170    1.000
    C100     C        0.04640    0.61690    0.75994    1.000
    H50      H        0.09390    0.64990    0.74760    1.000
    C101     C        0.02260    0.54795    0.73308    1.000
    C102     C        0.94990    0.50190    0.75216    1.000
    H51      H        0.93140    0.45630    0.73420    1.000
    C103     C        0.90340    0.52140    0.79726    1.000
    H52      H        0.85600    0.48840    0.80970    1.000
    C104     C        0.06780    0.52739    0.68412    1.000
