# CIF file generated by openbabel 3.1.0, see https://openbabel.org
data_I
_chemical_name_common 'image0'
_cell_length_a 35.1288
_cell_length_b 14.767
_cell_length_c 30.8649
_cell_angle_alpha 90
_cell_angle_beta 101.432
_cell_angle_gamma 90
_space_group_name_H-M_alt 'P 1'
_space_group_name_Hall 'P 1'
loop_
    _symmetry_equiv_pos_as_xyz
    x,y,z
loop_
    _atom_site_label
    _atom_site_type_symbol
    _atom_site_fract_x
    _atom_site_fract_y
    _atom_site_fract_z
    _atom_site_occupancy
    Zn1      Zn       0.91529    0.62492    0.90519    1.000
    Zn2      Zn       0.82622    0.85392    0.72962    1.000
    N1       N        0.87747    0.55690    0.85568    1.000
    C1       C        0.84519    0.59310    0.83268    1.000
    H1       H        0.83750    0.65140    0.84060    1.000
    C2       C        0.82225    0.54830    0.79724    1.000
    H2       H        0.79960    0.57600    0.78070    1.000
    C3       C        0.83333    0.46170    0.78667    1.000
    C4       C        0.86661    0.42440    0.81100    1.000
    H3       H        0.87450    0.36510    0.80470    1.000
    C5       C        0.88824    0.47460    0.84450    1.000
    H4       H        0.91190    0.44980    0.86050    1.000
    N2       N        0.66720    0.53400    0.60619    1.000
    C6       C        0.67796    0.45020    0.59691    1.000
    H5       H        0.66460    0.42190    0.57060    1.000
    C7       C        0.70761    0.40300    0.62384    1.000
    H6       H        0.71430    0.34340    0.61640    1.000
    C8       C        0.72731    0.44480    0.66187    1.000
    C9       C        0.71604    0.53160    0.67136    1.000
    H7       H        0.72910    0.56190    0.69730    1.000
    C10      C        0.68593    0.57370    0.64310    1.000
    H8       H        0.67830    0.63270    0.65010    1.000
    N3       N        0.81542    0.99170    0.72085    1.000
    C11      C        0.78484    0.02560    0.69311    1.000
    H9       H        0.76700    0.98510    0.67580    1.000
    C12      C        0.77810    0.11780    0.68858    1.000
    H10      H        0.75630    0.14000    0.66800    1.000
    C13      C        0.80333    0.17690    0.71422    1.000
    C14      C        0.83572    0.14190    0.74210    1.000
    H11      H        0.85420    0.18100    0.75940    1.000
    C15      C        0.84081    0.04980    0.74450    1.000
    H12      H        0.86320    0.02610    0.76360    1.000
    C16      C        0.80953    0.40910    0.75026    1.000
    N4       N        0.77924    0.45010    0.72487    1.000
    C17      C        0.75977    0.39930    0.69253    1.000
    N5       N        0.76642    0.31100    0.68550    1.000
    C18      C        0.79591    0.27650    0.71446    1.000
    N6       N        0.81971    0.32320    0.74585    1.000
    N7       N        0.57774    0.51090    0.55958    1.000
    C19      C        0.56260    0.49960    0.59500    1.000
    H13      H        0.57360    0.53180    0.62120    1.000
    C20      C        0.53170    0.44370    0.59600    1.000
    H14      H        0.52210    0.43690    0.62240    1.000
    C21      C        0.51468    0.39730    0.55819    1.000
    C22      C        0.53133    0.40470    0.52190    1.000
    H15      H        0.52160    0.37050    0.49600    1.000
    C23      C        0.56279    0.46320    0.52350    1.000
    H16      H        0.57390    0.46930    0.49800    1.000
    N8       N        0.35994    0.33290    0.68324    1.000
    C24      C        0.39350    0.37560    0.68680    1.000
    H17      H        0.40110    0.41570    0.71100    1.000
    C25      C        0.41790    0.36530    0.65750    1.000
    H18      H        0.44140    0.39910    0.66090    1.000
    C26      C        0.40780    0.30490    0.62270    1.000
    C27      C        0.37237    0.26060    0.61863    1.000
    H19      H        0.36410    0.21910    0.59510    1.000
    C28      C        0.34934    0.27730    0.64890    1.000
    H20      H        0.32480    0.24790    0.64530    1.000
    N9       N        0.42801    0.98330    0.44826    1.000
    C29      C        0.40112    0.01040    0.47100    1.000
    H21      H        0.37760    0.97680    0.46770    1.000
    C30      C        0.40588    0.08410    0.49870    1.000
    H22      H        0.38620    0.10130    0.51420    1.000
    C31      C        0.44043    0.13310    0.50349    1.000
    C32      C        0.46786    0.10640    0.47963    1.000
    H23      H        0.49130    0.13960    0.48190    1.000
    C33      C        0.46104    0.03170    0.45263    1.000
    H24      H        0.48020    0.01360    0.43660    1.000
    C34      C        0.48144    0.33590    0.55871    1.000
    N10      N        0.46100    0.35040    0.58979    1.000
    C35      C        0.43236    0.29150    0.58974    1.000
    N11      N        0.42458    0.22000    0.56312    1.000
    C36      C        0.44667    0.21320    0.53315    1.000
    N12      N        0.47502    0.27070    0.52839    1.000
    Zn3      Zn       0.62234    0.60180    0.56550    1.000
    I1       I        0.64360    0.60175    0.49200    1.000
    I2       I        0.60365    0.73957    0.60575    1.000
    I3       I        0.76604    0.76080    0.70590    1.000
    I4       I        0.87093    0.83780    0.80544    1.000
    I5       I        0.87310    0.73010    0.94175    1.000
    I6       I        0.97260    0.65940    0.87234    1.000
    I7       I        0.88129    0.74370    0.94217    1.000
    I8       I        0.97499    0.64860    0.86883    1.000
    Zn4      Zn       0.62690    0.59140    0.55650    1.000
    I9       I        0.64641    0.58040    0.48170    1.000
    I10      I        0.61320    0.74198    0.59150    1.000
    I11      I        0.75950    0.77120    0.70290    1.000
    I12      I        0.86540    0.83540    0.80690    1.000
    Zn5      Zn       0.41529    0.12492    0.90519    1.000
    Zn6      Zn       0.32622    0.35392    0.72962    1.000
    N13      N        0.37747    0.05690    0.85568    1.000
    C37      C        0.34519    0.09310    0.83268    1.000
    H25      H        0.33750    0.15140    0.84060    1.000
    C38      C        0.32225    0.04830    0.79724    1.000
    H26      H        0.29960    0.07600    0.78070    1.000
    C39      C        0.33333    0.96170    0.78667    1.000
    C40      C        0.36661    0.92440    0.81100    1.000
    H27      H        0.37450    0.86510    0.80470    1.000
    C41      C        0.38824    0.97460    0.84450    1.000
    H28      H        0.41190    0.94980    0.86050    1.000
    N14      N        0.16720    0.03400    0.60619    1.000
    C42      C        0.17796    0.95020    0.59691    1.000
    H29      H        0.16460    0.92190    0.57060    1.000
    C43      C        0.20761    0.90300    0.62384    1.000
    H30      H        0.21430    0.84340    0.61640    1.000
    C44      C        0.22731    0.94480    0.66187    1.000
    C45      C        0.21604    0.03160    0.67136    1.000
    H31      H        0.22910    0.06190    0.69730    1.000
    C46      C        0.18593    0.07370    0.64310    1.000
    H32      H        0.17830    0.13270    0.65010    1.000
    N15      N        0.31542    0.49170    0.72085    1.000
    C47      C        0.28484    0.52560    0.69311    1.000
    H33      H        0.26700    0.48510    0.67580    1.000
    C48      C        0.27810    0.61780    0.68858    1.000
    H34      H        0.25630    0.64000    0.66800    1.000
    C49      C        0.30333    0.67690    0.71422    1.000
    C50      C        0.33572    0.64190    0.74210    1.000
    H35      H        0.35420    0.68100    0.75940    1.000
    C51      C        0.34081    0.54980    0.74450    1.000
    H36      H        0.36320    0.52610    0.76360    1.000
    C52      C        0.30953    0.90910    0.75026    1.000
    N16      N        0.27924    0.95010    0.72487    1.000
    C53      C        0.25977    0.89930    0.69253    1.000
    N17      N        0.26642    0.81100    0.68550    1.000
    C54      C        0.29591    0.77650    0.71446    1.000
    N18      N        0.31971    0.82320    0.74585    1.000
    N19      N        0.07774    0.01090    0.55958    1.000
    C55      C        0.06260    0.99960    0.59500    1.000
    H37      H        0.07360    0.03180    0.62120    1.000
    C56      C        0.03170    0.94370    0.59600    1.000
    H38      H        0.02210    0.93690    0.62240    1.000
    C57      C        0.01468    0.89730    0.55819    1.000
    C58      C        0.03133    0.90470    0.52190    1.000
    H39      H        0.02160    0.87050    0.49600    1.000
    C59      C        0.06279    0.96320    0.52350    1.000
    H40      H        0.07390    0.96930    0.49800    1.000
    N20      N        0.85994    0.83290    0.68324    1.000
    C60      C        0.89350    0.87560    0.68680    1.000
    H41      H        0.90110    0.91570    0.71100    1.000
    C61      C        0.91790    0.86530    0.65750    1.000
    H42      H        0.94140    0.89910    0.66090    1.000
    C62      C        0.90780    0.80490    0.62270    1.000
    C63      C        0.87237    0.76060    0.61863    1.000
    H43      H        0.86410    0.71910    0.59510    1.000
    C64      C        0.84934    0.77730    0.64890    1.000
    H44      H        0.82480    0.74790    0.64530    1.000
    N21      N        0.92801    0.48330    0.44826    1.000
    C65      C        0.90112    0.51040    0.47100    1.000
    H45      H        0.87760    0.47680    0.46770    1.000
    C66      C        0.90588    0.58410    0.49870    1.000
    H46      H        0.88620    0.60130    0.51420    1.000
    C67      C        0.94043    0.63310    0.50349    1.000
    C68      C        0.96786    0.60640    0.47963    1.000
    H47      H        0.99130    0.63960    0.48190    1.000
    C69      C        0.96104    0.53170    0.45263    1.000
    H48      H        0.98020    0.51360    0.43660    1.000
    C70      C        0.98144    0.83590    0.55871    1.000
    N22      N        0.96100    0.85040    0.58979    1.000
    C71      C        0.93236    0.79150    0.58974    1.000
    N23      N        0.92458    0.72000    0.56312    1.000
    C72      C        0.94667    0.71320    0.53315    1.000
    N24      N        0.97502    0.77070    0.52839    1.000
    Zn7      Zn       0.12234    0.10180    0.56550    1.000
    I13      I        0.14360    0.10175    0.49200    1.000
    I14      I        0.10365    0.23957    0.60575    1.000
    I15      I        0.26604    0.26080    0.70590    1.000
    I16      I        0.37093    0.33780    0.80544    1.000
    I17      I        0.37310    0.23010    0.94175    1.000
    I18      I        0.47260    0.15940    0.87234    1.000
    I19      I        0.38129    0.24370    0.94217    1.000
    I20      I        0.47499    0.14860    0.86883    1.000
    Zn8      Zn       0.12690    0.09140    0.55650    1.000
    I21      I        0.14641    0.08040    0.48170    1.000
    I22      I        0.11320    0.24198    0.59150    1.000
    I23      I        0.25950    0.27120    0.70290    1.000
    I24      I        0.36540    0.33540    0.80690    1.000
    Zn9      Zn       0.91529    0.37508    0.40519    1.000
    Zn10     Zn       0.82622    0.14608    0.22962    1.000
    N25      N        0.87747    0.44310    0.35568    1.000
    C73      C        0.84519    0.40690    0.33268    1.000
    H49      H        0.83750    0.34860    0.34060    1.000
    C74      C        0.82225    0.45170    0.29724    1.000
    H50      H        0.79960    0.42400    0.28070    1.000
    C75      C        0.83333    0.53830    0.28667    1.000
    C76      C        0.86661    0.57560    0.31100    1.000
    H51      H        0.87450    0.63490    0.30470    1.000
    C77      C        0.88824    0.52540    0.34450    1.000
    H52      H        0.91190    0.55020    0.36050    1.000
    N26      N        0.66720    0.46600    0.10619    1.000
    C78      C        0.67796    0.54980    0.09691    1.000
    H53      H        0.66460    0.57810    0.07060    1.000
    C79      C        0.70761    0.59700    0.12384    1.000
    H54      H        0.71430    0.65660    0.11640    1.000
    C80      C        0.72731    0.55520    0.16187    1.000
    C81      C        0.71604    0.46840    0.17136    1.000
    H55      H        0.72910    0.43810    0.19730    1.000
    C82      C        0.68593    0.42630    0.14310    1.000
    H56      H        0.67830    0.36730    0.15010    1.000
    N27      N        0.81542    0.00830    0.22085    1.000
    C83      C        0.78484    0.97440    0.19311    1.000
    H57      H        0.76700    0.01490    0.17580    1.000
    C84      C        0.77810    0.88220    0.18858    1.000
    H58      H        0.75630    0.86000    0.16800    1.000
    C85      C        0.80333    0.82310    0.21422    1.000
    C86      C        0.83572    0.85810    0.24210    1.000
    H59      H        0.85420    0.81900    0.25940    1.000
    C87      C        0.84081    0.95020    0.24450    1.000
    H60      H        0.86320    0.97390    0.26360    1.000
    C88      C        0.80953    0.59090    0.25026    1.000
    N28      N        0.77924    0.54990    0.22487    1.000
    C89      C        0.75977    0.60070    0.19253    1.000
    N29      N        0.76642    0.68900    0.18550    1.000
    C90      C        0.79591    0.72350    0.21446    1.000
    N30      N        0.81971    0.67680    0.24585    1.000
    N31      N        0.57774    0.48910    0.05958    1.000
    C91      C        0.56260    0.50040    0.09500    1.000
    H61      H        0.57360    0.46820    0.12120    1.000
    C92      C        0.53170    0.55630    0.09600    1.000
    H62      H        0.52210    0.56310    0.12240    1.000
    C93      C        0.51468    0.60270    0.05819    1.000
    C94      C        0.53133    0.59530    0.02190    1.000
    H63      H        0.52160    0.62950    0.99600    1.000
    C95      C        0.56279    0.53680    0.02350    1.000
    H64      H        0.57390    0.53070    0.99800    1.000
    N32      N        0.35994    0.66710    0.18324    1.000
    C96      C        0.39350    0.62440    0.18680    1.000
    H65      H        0.40110    0.58430    0.21100    1.000
    C97      C        0.41790    0.63470    0.15750    1.000
    H66      H        0.44140    0.60090    0.16090    1.000
    C98      C        0.40780    0.69510    0.12270    1.000
    C99      C        0.37237    0.73940    0.11863    1.000
    H67      H        0.36410    0.78090    0.09510    1.000
    C100     C        0.34934    0.72270    0.14890    1.000
    H68      H        0.32480    0.75210    0.14530    1.000
    N33      N        0.42801    0.01670    0.94826    1.000
    C101     C        0.40112    0.98960    0.97100    1.000
    H69      H        0.37760    0.02320    0.96770    1.000
    C102     C        0.40588    0.91590    0.99870    1.000
    H70      H        0.38620    0.89870    0.01420    1.000
    C103     C        0.44043    0.86690    0.00349    1.000
    C104     C        0.46786    0.89360    0.97963    1.000
    H71      H        0.49130    0.86040    0.98190    1.000
    C105     C        0.46104    0.96830    0.95263    1.000
    H72      H        0.48020    0.98640    0.93660    1.000
    C106     C        0.48144    0.66410    0.05871    1.000
    N34      N        0.46100    0.64960    0.08979    1.000
    C107     C        0.43236    0.70850    0.08974    1.000
    N35      N        0.42458    0.78000    0.06312    1.000
    C108     C        0.44667    0.78680    0.03315    1.000
    N36      N        0.47502    0.72930    0.02839    1.000
    Zn11     Zn       0.62234    0.39820    0.06550    1.000
    I25      I        0.64360    0.39825    0.99200    1.000
    I26      I        0.60365    0.26043    0.10575    1.000
    I27      I        0.76604    0.23920    0.20590    1.000
    I28      I        0.87093    0.16220    0.30544    1.000
    I29      I        0.87310    0.26990    0.44175    1.000
    I30      I        0.97260    0.34060    0.37234    1.000
    I31      I        0.88129    0.25630    0.44217    1.000
    I32      I        0.97499    0.35140    0.36883    1.000
    Zn12     Zn       0.62690    0.40860    0.05650    1.000
    I33      I        0.64641    0.41960    0.98170    1.000
    I34      I        0.61320    0.25802    0.09150    1.000
    I35      I        0.75950    0.22880    0.20290    1.000
    I36      I        0.86540    0.16460    0.30690    1.000
    Zn13     Zn       0.41529    0.87508    0.40519    1.000
    Zn14     Zn       0.32622    0.64608    0.22962    1.000
    N37      N        0.37747    0.94310    0.35568    1.000
    C109     C        0.34519    0.90690    0.33268    1.000
    H73      H        0.33750    0.84860    0.34060    1.000
    C110     C        0.32225    0.95170    0.29724    1.000
    H74      H        0.29960    0.92400    0.28070    1.000
    C111     C        0.33333    0.03830    0.28667    1.000
    C112     C        0.36661    0.07560    0.31100    1.000
    H75      H        0.37450    0.13490    0.30470    1.000
    C113     C        0.38824    0.02540    0.34450    1.000
    H76      H        0.41190    0.05020    0.36050    1.000
    N38      N        0.16720    0.96600    0.10619    1.000
    C114     C        0.17796    0.04980    0.09691    1.000
    H77      H        0.16460    0.07810    0.07060    1.000
    C115     C        0.20761    0.09700    0.12384    1.000
    H78      H        0.21430    0.15660    0.11640    1.000
    C116     C        0.22731    0.05520    0.16187    1.000
    C117     C        0.21604    0.96840    0.17136    1.000
    H79      H        0.22910    0.93810    0.19730    1.000
    C118     C        0.18593    0.92630    0.14310    1.000
    H80      H        0.17830    0.86730    0.15010    1.000
    N39      N        0.31542    0.50830    0.22085    1.000
    C119     C        0.28484    0.47440    0.19311    1.000
    H81      H        0.26700    0.51490    0.17580    1.000
    C120     C        0.27810    0.38220    0.18858    1.000
    H82      H        0.25630    0.36000    0.16800    1.000
    C121     C        0.30333    0.32310    0.21422    1.000
    C122     C        0.33572    0.35810    0.24210    1.000
    H83      H        0.35420    0.31900    0.25940    1.000
    C123     C        0.34081    0.45020    0.24450    1.000
    H84      H        0.36320    0.47390    0.26360    1.000
    C124     C        0.30953    0.09090    0.25026    1.000
    N40      N        0.27924    0.04990    0.22487    1.000
    C125     C        0.25977    0.10070    0.19253    1.000
    N41      N        0.26642    0.18900    0.18550    1.000
    C126     C        0.29591    0.22350    0.21446    1.000
    N42      N        0.31971    0.17680    0.24585    1.000
    N43      N        0.07774    0.98910    0.05958    1.000
    C127     C        0.06260    0.00040    0.09500    1.000
    H85      H        0.07360    0.96820    0.12120    1.000
    C128     C        0.03170    0.05630    0.09600    1.000
    H86      H        0.02210    0.06310    0.12240    1.000
    C129     C        0.01468    0.10270    0.05819    1.000
    C130     C        0.03133    0.09530    0.02190    1.000
    H87      H        0.02160    0.12950    0.99600    1.000
    C131     C        0.06279    0.03680    0.02350    1.000
    H88      H        0.07390    0.03070    0.99800    1.000
    N44      N        0.85994    0.16710    0.18324    1.000
    C132     C        0.89350    0.12440    0.18680    1.000
    H89      H        0.90110    0.08430    0.21100    1.000
    C133     C        0.91790    0.13470    0.15750    1.000
    H90      H        0.94140    0.10090    0.16090    1.000
    C134     C        0.90780    0.19510    0.12270    1.000
    C135     C        0.87237    0.23940    0.11863    1.000
    H91      H        0.86410    0.28090    0.09510    1.000
    C136     C        0.84934    0.22270    0.14890    1.000
    H92      H        0.82480    0.25210    0.14530    1.000
    N45      N        0.92801    0.51670    0.94826    1.000
    C137     C        0.90112    0.48960    0.97100    1.000
    H93      H        0.87760    0.52320    0.96770    1.000
    C138     C        0.90588    0.41590    0.99870    1.000
    H94      H        0.88620    0.39870    0.01420    1.000
    C139     C        0.94043    0.36690    0.00349    1.000
    C140     C        0.96786    0.39360    0.97963    1.000
    H95      H        0.99130    0.36040    0.98190    1.000
    C141     C        0.96104    0.46830    0.95263    1.000
    H96      H        0.98020    0.48640    0.93660    1.000
    C142     C        0.98144    0.16410    0.05871    1.000
    N46      N        0.96100    0.14960    0.08979    1.000
    C143     C        0.93236    0.20850    0.08974    1.000
    N47      N        0.92458    0.28000    0.06312    1.000
    C144     C        0.94667    0.28680    0.03315    1.000
    N48      N        0.97502    0.22930    0.02839    1.000
    Zn15     Zn       0.12234    0.89820    0.06550    1.000
    I37      I        0.14360    0.89825    0.99200    1.000
    I38      I        0.10365    0.76043    0.10575    1.000
    I39      I        0.26604    0.73920    0.20590    1.000
    I40      I        0.37093    0.66220    0.30544    1.000
    I41      I        0.37310    0.76990    0.44175    1.000
    I42      I        0.47260    0.84060    0.37234    1.000
    I43      I        0.38129    0.75630    0.44217    1.000
    I44      I        0.47499    0.85140    0.36883    1.000
    Zn16     Zn       0.12690    0.90860    0.05650    1.000
    I45      I        0.14641    0.91960    0.98170    1.000
    I46      I        0.11320    0.75802    0.09150    1.000
    I47      I        0.25950    0.72880    0.20290    1.000
    I48      I        0.36540    0.66460    0.30690    1.000
    Zn17     Zn       0.08471    0.62492    0.59481    1.000
    Zn18     Zn       0.17378    0.85392    0.77038    1.000
    N49      N        0.12253    0.55690    0.64432    1.000
    C145     C        0.15481    0.59310    0.66732    1.000
    H97      H        0.16250    0.65140    0.65940    1.000
    C146     C        0.17775    0.54830    0.70276    1.000
    H98      H        0.20040    0.57600    0.71930    1.000
    C147     C        0.16667    0.46170    0.71333    1.000
    C148     C        0.13339    0.42440    0.68900    1.000
    H99      H        0.12550    0.36510    0.69530    1.000
    C149     C        0.11176    0.47460    0.65550    1.000
    H100     H        0.08810    0.44980    0.63950    1.000
    N50      N        0.33280    0.53400    0.89381    1.000
    C150     C        0.32204    0.45020    0.90309    1.000
    H101     H        0.33540    0.42190    0.92940    1.000
    C151     C        0.29239    0.40300    0.87616    1.000
    H102     H        0.28570    0.34340    0.88360    1.000
    C152     C        0.27269    0.44480    0.83813    1.000
    C153     C        0.28396    0.53160    0.82864    1.000
    H103     H        0.27090    0.56190    0.80270    1.000
    C154     C        0.31407    0.57370    0.85690    1.000
    H104     H        0.32170    0.63270    0.84990    1.000
    N51      N        0.18458    0.99170    0.77915    1.000
    C155     C        0.21516    0.02560    0.80689    1.000
    H105     H        0.23300    0.98510    0.82420    1.000
    C156     C        0.22190    0.11780    0.81142    1.000
    H106     H        0.24370    0.14000    0.83200    1.000
    C157     C        0.19667    0.17690    0.78578    1.000
    C158     C        0.16428    0.14190    0.75790    1.000
    H107     H        0.14580    0.18100    0.74060    1.000
    C159     C        0.15919    0.04980    0.75550    1.000
    H108     H        0.13680    0.02610    0.73640    1.000
    C160     C        0.19047    0.40910    0.74974    1.000
    N52      N        0.22076    0.45010    0.77513    1.000
    C161     C        0.24023    0.39930    0.80747    1.000
    N53      N        0.23358    0.31100    0.81450    1.000
    C162     C        0.20409    0.27650    0.78554    1.000
    N54      N        0.18029    0.32320    0.75415    1.000
    N55      N        0.42226    0.51090    0.94042    1.000
    C163     C        0.43740    0.49960    0.90500    1.000
    H109     H        0.42640    0.53180    0.87880    1.000
    C164     C        0.46830    0.44370    0.90400    1.000
    H110     H        0.47790    0.43690    0.87760    1.000
    C165     C        0.48532    0.39730    0.94181    1.000
    C166     C        0.46867    0.40470    0.97810    1.000
    H111     H        0.47840    0.37050    0.00400    1.000
    C167     C        0.43721    0.46320    0.97650    1.000
    H112     H        0.42610    0.46930    0.00200    1.000
    N56      N        0.64006    0.33290    0.81676    1.000
    C168     C        0.60650    0.37560    0.81320    1.000
    H113     H        0.59890    0.41570    0.78900    1.000
    C169     C        0.58210    0.36530    0.84250    1.000
    H114     H        0.55860    0.39910    0.83910    1.000
    C170     C        0.59220    0.30490    0.87730    1.000
    C171     C        0.62763    0.26060    0.88137    1.000
    H115     H        0.63590    0.21910    0.90490    1.000
    C172     C        0.65066    0.27730    0.85110    1.000
    H116     H        0.67520    0.24790    0.85470    1.000
    N57      N        0.57199    0.98330    0.05174    1.000
    C173     C        0.59888    0.01040    0.02900    1.000
    H117     H        0.62240    0.97680    0.03230    1.000
    C174     C        0.59412    0.08410    0.00130    1.000
    H118     H        0.61380    0.10130    0.98580    1.000
    C175     C        0.55957    0.13310    0.99651    1.000
    C176     C        0.53214    0.10640    0.02037    1.000
    H119     H        0.50870    0.13960    0.01810    1.000
    C177     C        0.53896    0.03170    0.04737    1.000
    H120     H        0.51980    0.01360    0.06340    1.000
    C178     C        0.51856    0.33590    0.94129    1.000
    N58      N        0.53900    0.35040    0.91021    1.000
    C179     C        0.56764    0.29150    0.91026    1.000
    N59      N        0.57542    0.22000    0.93688    1.000
    C180     C        0.55333    0.21320    0.96685    1.000
    N60      N        0.52498    0.27070    0.97161    1.000
    Zn19     Zn       0.37766    0.60180    0.93450    1.000
    I49      I        0.35640    0.60175    0.00800    1.000
    I50      I        0.39635    0.73957    0.89425    1.000
    I51      I        0.23396    0.76080    0.79410    1.000
    I52      I        0.12907    0.83780    0.69456    1.000
    I53      I        0.12690    0.73010    0.55825    1.000
    I54      I        0.02740    0.65940    0.62766    1.000
    I55      I        0.11871    0.74370    0.55783    1.000
    I56      I        0.02501    0.64860    0.63117    1.000
    Zn20     Zn       0.37310    0.59140    0.94350    1.000
    I57      I        0.35359    0.58040    0.01830    1.000
    I58      I        0.38680    0.74198    0.90850    1.000
    I59      I        0.24050    0.77120    0.79710    1.000
    I60      I        0.13460    0.83540    0.69310    1.000
    Zn21     Zn       0.58471    0.12492    0.59481    1.000
    Zn22     Zn       0.67378    0.35392    0.77038    1.000
    N61      N        0.62253    0.05690    0.64432    1.000
    C181     C        0.65481    0.09310    0.66732    1.000
    H121     H        0.66250    0.15140    0.65940    1.000
    C182     C        0.67775    0.04830    0.70276    1.000
    H122     H        0.70040    0.07600    0.71930    1.000
    C183     C        0.66667    0.96170    0.71333    1.000
    C184     C        0.63339    0.92440    0.68900    1.000
    H123     H        0.62550    0.86510    0.69530    1.000
    C185     C        0.61176    0.97460    0.65550    1.000
    H124     H        0.58810    0.94980    0.63950    1.000
    N62      N        0.83280    0.03400    0.89381    1.000
    C186     C        0.82204    0.95020    0.90309    1.000
    H125     H        0.83540    0.92190    0.92940    1.000
    C187     C        0.79239    0.90300    0.87616    1.000
    H126     H        0.78570    0.84340    0.88360    1.000
    C188     C        0.77269    0.94480    0.83813    1.000
    C189     C        0.78396    0.03160    0.82864    1.000
    H127     H        0.77090    0.06190    0.80270    1.000
    C190     C        0.81407    0.07370    0.85690    1.000
    H128     H        0.82170    0.13270    0.84990    1.000
    N63      N        0.68458    0.49170    0.77915    1.000
    C191     C        0.71516    0.52560    0.80689    1.000
    H129     H        0.73300    0.48510    0.82420    1.000
    C192     C        0.72190    0.61780    0.81142    1.000
    H130     H        0.74370    0.64000    0.83200    1.000
    C193     C        0.69667    0.67690    0.78578    1.000
    C194     C        0.66428    0.64190    0.75790    1.000
    H131     H        0.64580    0.68100    0.74060    1.000
    C195     C        0.65919    0.54980    0.75550    1.000
    H132     H        0.63680    0.52610    0.73640    1.000
    C196     C        0.69047    0.90910    0.74974    1.000
    N64      N        0.72076    0.95010    0.77513    1.000
    C197     C        0.74023    0.89930    0.80747    1.000
    N65      N        0.73358    0.81100    0.81450    1.000
    C198     C        0.70409    0.77650    0.78554    1.000
    N66      N        0.68029    0.82320    0.75415    1.000
    N67      N        0.92226    0.01090    0.94042    1.000
    C199     C        0.93740    0.99960    0.90500    1.000
    H133     H        0.92640    0.03180    0.87880    1.000
    C200     C        0.96830    0.94370    0.90400    1.000
    H134     H        0.97790    0.93690    0.87760    1.000
    C201     C        0.98532    0.89730    0.94181    1.000
    C202     C        0.96867    0.90470    0.97810    1.000
    H135     H        0.97840    0.87050    0.00400    1.000
    C203     C        0.93721    0.96320    0.97650    1.000
    H136     H        0.92610    0.96930    0.00200    1.000
    N68      N        0.14006    0.83290    0.81676    1.000
    C204     C        0.10650    0.87560    0.81320    1.000
    H137     H        0.09890    0.91570    0.78900    1.000
    C205     C        0.08210    0.86530    0.84250    1.000
    H138     H        0.05860    0.89910    0.83910    1.000
    C206     C        0.09220    0.80490    0.87730    1.000
    C207     C        0.12763    0.76060    0.88137    1.000
    H139     H        0.13590    0.71910    0.90490    1.000
    C208     C        0.15066    0.77730    0.85110    1.000
    H140     H        0.17520    0.74790    0.85470    1.000
    N69      N        0.07199    0.48330    0.05174    1.000
    C209     C        0.09888    0.51040    0.02900    1.000
    H141     H        0.12240    0.47680    0.03230    1.000
    C210     C        0.09412    0.58410    0.00130    1.000
    H142     H        0.11380    0.60130    0.98580    1.000
    C211     C        0.05957    0.63310    0.99651    1.000
    C212     C        0.03214    0.60640    0.02037    1.000
    H143     H        0.00870    0.63960    0.01810    1.000
    C213     C        0.03896    0.53170    0.04737    1.000
    H144     H        0.01980    0.51360    0.06340    1.000
    C214     C        0.01856    0.83590    0.94129    1.000
    N70      N        0.03900    0.85040    0.91021    1.000
    C215     C        0.06764    0.79150    0.91026    1.000
    N71      N        0.07542    0.72000    0.93688    1.000
    C216     C        0.05333    0.71320    0.96685    1.000
    N72      N        0.02498    0.77070    0.97161    1.000
    Zn23     Zn       0.87766    0.10180    0.93450    1.000
    I61      I        0.85640    0.10175    0.00800    1.000
    I62      I        0.89635    0.23957    0.89425    1.000
    I63      I        0.73396    0.26080    0.79410    1.000
    I64      I        0.62907    0.33780    0.69456    1.000
    I65      I        0.62690    0.23010    0.55825    1.000
    I66      I        0.52740    0.15940    0.62766    1.000
    I67      I        0.61871    0.24370    0.55783    1.000
    I68      I        0.52501    0.14860    0.63117    1.000
    Zn24     Zn       0.87310    0.09140    0.94350    1.000
    I69      I        0.85359    0.08040    0.01830    1.000
    I70      I        0.88680    0.24198    0.90850    1.000
    I71      I        0.74050    0.27120    0.79710    1.000
    I72      I        0.63460    0.33540    0.69310    1.000
    Zn25     Zn       0.08471    0.37508    0.09481    1.000
    Zn26     Zn       0.17378    0.14608    0.27038    1.000
    N73      N        0.12253    0.44310    0.14432    1.000
    C217     C        0.15481    0.40690    0.16732    1.000
    H145     H        0.16250    0.34860    0.15940    1.000
    C218     C        0.17775    0.45170    0.20276    1.000
    H146     H        0.20040    0.42400    0.21930    1.000
    C219     C        0.16667    0.53830    0.21333    1.000
    C220     C        0.13339    0.57560    0.18900    1.000
    H147     H        0.12550    0.63490    0.19530    1.000
    C221     C        0.11176    0.52540    0.15550    1.000
    H148     H        0.08810    0.55020    0.13950    1.000
    N74      N        0.33280    0.46600    0.39381    1.000
    C222     C        0.32204    0.54980    0.40309    1.000
    H149     H        0.33540    0.57810    0.42940    1.000
    C223     C        0.29239    0.59700    0.37616    1.000
    H150     H        0.28570    0.65660    0.38360    1.000
    C224     C        0.27269    0.55520    0.33813    1.000
    C225     C        0.28396    0.46840    0.32864    1.000
    H151     H        0.27090    0.43810    0.30270    1.000
    C226     C        0.31407    0.42630    0.35690    1.000
    H152     H        0.32170    0.36730    0.34990    1.000
    N75      N        0.18458    0.00830    0.27915    1.000
    C227     C        0.21516    0.97440    0.30689    1.000
    H153     H        0.23300    0.01490    0.32420    1.000
    C228     C        0.22190    0.88220    0.31142    1.000
    H154     H        0.24370    0.86000    0.33200    1.000
    C229     C        0.19667    0.82310    0.28578    1.000
    C230     C        0.16428    0.85810    0.25790    1.000
    H155     H        0.14580    0.81900    0.24060    1.000
    C231     C        0.15919    0.95020    0.25550    1.000
    H156     H        0.13680    0.97390    0.23640    1.000
    C232     C        0.19047    0.59090    0.24974    1.000
    N76      N        0.22076    0.54990    0.27513    1.000
    C233     C        0.24023    0.60070    0.30747    1.000
    N77      N        0.23358    0.68900    0.31450    1.000
    C234     C        0.20409    0.72350    0.28554    1.000
    N78      N        0.18029    0.67680    0.25415    1.000
    N79      N        0.42226    0.48910    0.44042    1.000
    C235     C        0.43740    0.50040    0.40500    1.000
    H157     H        0.42640    0.46820    0.37880    1.000
    C236     C        0.46830    0.55630    0.40400    1.000
    H158     H        0.47790    0.56310    0.37760    1.000
    C237     C        0.48532    0.60270    0.44181    1.000
    C238     C        0.46867    0.59530    0.47810    1.000
    H159     H        0.47840    0.62950    0.50400    1.000
    C239     C        0.43721    0.53680    0.47650    1.000
    H160     H        0.42610    0.53070    0.50200    1.000
    N80      N        0.64006    0.66710    0.31676    1.000
    C240     C        0.60650    0.62440    0.31320    1.000
    H161     H        0.59890    0.58430    0.28900    1.000
    C241     C        0.58210    0.63470    0.34250    1.000
    H162     H        0.55860    0.60090    0.33910    1.000
    C242     C        0.59220    0.69510    0.37730    1.000
    C243     C        0.62763    0.73940    0.38137    1.000
    H163     H        0.63590    0.78090    0.40490    1.000
    C244     C        0.65066    0.72270    0.35110    1.000
    H164     H        0.67520    0.75210    0.35470    1.000
    N81      N        0.57199    0.01670    0.55174    1.000
    C245     C        0.59888    0.98960    0.52900    1.000
    H165     H        0.62240    0.02320    0.53230    1.000
    C246     C        0.59412    0.91590    0.50130    1.000
    H166     H        0.61380    0.89870    0.48580    1.000
    C247     C        0.55957    0.86690    0.49651    1.000
    C248     C        0.53214    0.89360    0.52037    1.000
    H167     H        0.50870    0.86040    0.51810    1.000
    C249     C        0.53896    0.96830    0.54737    1.000
    H168     H        0.51980    0.98640    0.56340    1.000
    C250     C        0.51856    0.66410    0.44129    1.000
    N82      N        0.53900    0.64960    0.41021    1.000
    C251     C        0.56764    0.70850    0.41026    1.000
    N83      N        0.57542    0.78000    0.43688    1.000
    C252     C        0.55333    0.78680    0.46685    1.000
    N84      N        0.52498    0.72930    0.47161    1.000
    Zn27     Zn       0.37766    0.39820    0.43450    1.000
    I73      I        0.35640    0.39825    0.50800    1.000
    I74      I        0.39635    0.26043    0.39425    1.000
    I75      I        0.23396    0.23920    0.29410    1.000
    I76      I        0.12907    0.16220    0.19456    1.000
    I77      I        0.12690    0.26990    0.05825    1.000
    I78      I        0.02740    0.34060    0.12766    1.000
    I79      I        0.11871    0.25630    0.05783    1.000
    I80      I        0.02501    0.35140    0.13117    1.000
    Zn28     Zn       0.37310    0.40860    0.44350    1.000
    I81      I        0.35359    0.41960    0.51830    1.000
    I82      I        0.38680    0.25802    0.40850    1.000
    I83      I        0.24050    0.22880    0.29710    1.000
    I84      I        0.13460    0.16460    0.19310    1.000
    Zn29     Zn       0.58471    0.87508    0.09481    1.000
    Zn30     Zn       0.67378    0.64608    0.27038    1.000
    N85      N        0.62253    0.94310    0.14432    1.000
    C253     C        0.65481    0.90690    0.16732    1.000
    H169     H        0.66250    0.84860    0.15940    1.000
    C254     C        0.67775    0.95170    0.20276    1.000
    H170     H        0.70040    0.92400    0.21930    1.000
    C255     C        0.66667    0.03830    0.21333    1.000
    C256     C        0.63339    0.07560    0.18900    1.000
    H171     H        0.62550    0.13490    0.19530    1.000
    C257     C        0.61176    0.02540    0.15550    1.000
    H172     H        0.58810    0.05020    0.13950    1.000
    N86      N        0.83280    0.96600    0.39381    1.000
    C258     C        0.82204    0.04980    0.40309    1.000
    H173     H        0.83540    0.07810    0.42940    1.000
    C259     C        0.79239    0.09700    0.37616    1.000
    H174     H        0.78570    0.15660    0.38360    1.000
    C260     C        0.77269    0.05520    0.33813    1.000
    C261     C        0.78396    0.96840    0.32864    1.000
    H175     H        0.77090    0.93810    0.30270    1.000
    C262     C        0.81407    0.92630    0.35690    1.000
    H176     H        0.82170    0.86730    0.34990    1.000
    N87      N        0.68458    0.50830    0.27915    1.000
    C263     C        0.71516    0.47440    0.30689    1.000
    H177     H        0.73300    0.51490    0.32420    1.000
    C264     C        0.72190    0.38220    0.31142    1.000
    H178     H        0.74370    0.36000    0.33200    1.000
    C265     C        0.69667    0.32310    0.28578    1.000
    C266     C        0.66428    0.35810    0.25790    1.000
    H179     H        0.64580    0.31900    0.24060    1.000
    C267     C        0.65919    0.45020    0.25550    1.000
    H180     H        0.63680    0.47390    0.23640    1.000
    C268     C        0.69047    0.09090    0.24974    1.000
    N88      N        0.72076    0.04990    0.27513    1.000
    C269     C        0.74023    0.10070    0.30747    1.000
    N89      N        0.73358    0.18900    0.31450    1.000
    C270     C        0.70409    0.22350    0.28554    1.000
    N90      N        0.68029    0.17680    0.25415    1.000
    N91      N        0.92226    0.98910    0.44042    1.000
    C271     C        0.93740    0.00040    0.40500    1.000
    H181     H        0.92640    0.96820    0.37880    1.000
    C272     C        0.96830    0.05630    0.40400    1.000
    H182     H        0.97790    0.06310    0.37760    1.000
    C273     C        0.98532    0.10270    0.44181    1.000
    C274     C        0.96867    0.09530    0.47810    1.000
    H183     H        0.97840    0.12950    0.50400    1.000
    C275     C        0.93721    0.03680    0.47650    1.000
    H184     H        0.92610    0.03070    0.50200    1.000
    N92      N        0.14006    0.16710    0.31676    1.000
    C276     C        0.10650    0.12440    0.31320    1.000
    H185     H        0.09890    0.08430    0.28900    1.000
    C277     C        0.08210    0.13470    0.34250    1.000
    H186     H        0.05860    0.10090    0.33910    1.000
    C278     C        0.09220    0.19510    0.37730    1.000
    C279     C        0.12763    0.23940    0.38137    1.000
    H187     H        0.13590    0.28090    0.40490    1.000
    C280     C        0.15066    0.22270    0.35110    1.000
    H188     H        0.17520    0.25210    0.35470    1.000
    N93      N        0.07199    0.51670    0.55174    1.000
    C281     C        0.09888    0.48960    0.52900    1.000
    H189     H        0.12240    0.52320    0.53230    1.000
    C282     C        0.09412    0.41590    0.50130    1.000
    H190     H        0.11380    0.39870    0.48580    1.000
    C283     C        0.05957    0.36690    0.49651    1.000
    C284     C        0.03214    0.39360    0.52037    1.000
    H191     H        0.00870    0.36040    0.51810    1.000
    C285     C        0.03896    0.46830    0.54737    1.000
    H192     H        0.01980    0.48640    0.56340    1.000
    C286     C        0.01856    0.16410    0.44129    1.000
    N94      N        0.03900    0.14960    0.41021    1.000
    C287     C        0.06764    0.20850    0.41026    1.000
    N95      N        0.07542    0.28000    0.43688    1.000
    C288     C        0.05333    0.28680    0.46685    1.000
    N96      N        0.02498    0.22930    0.47161    1.000
    Zn31     Zn       0.87766    0.89820    0.43450    1.000
    I85      I        0.85640    0.89825    0.50800    1.000
    I86      I        0.89635    0.76043    0.39425    1.000
    I87      I        0.73396    0.73920    0.29410    1.000
    I88      I        0.62907    0.66220    0.19456    1.000
    I89      I        0.62690    0.76990    0.05825    1.000
    I90      I        0.52740    0.84060    0.12766    1.000
    I91      I        0.61871    0.75630    0.05783    1.000
    I92      I        0.52501    0.85140    0.13117    1.000
    Zn32     Zn       0.87310    0.90860    0.44350    1.000
    I93      I        0.85359    0.91960    0.51830    1.000
    I94      I        0.88680    0.75802    0.40850    1.000
    I95      I        0.74050    0.72880    0.29710    1.000
    I96      I        0.63460    0.66460    0.19310    1.000
    C289     C        0.45370    0.87000    0.58800    1.000
    H193     H        0.46870    0.89210    0.56610    1.000
    H194     H        0.42800    0.90000    0.58080    1.000
    C290     C        0.47370    0.90500    0.63200    1.000
    H195     H        0.45370    0.92010    0.64950    1.000
    H196     H        0.48740    0.96140    0.62780    1.000
    C291     C        0.50270    0.84000    0.65960    1.000
    H197     H        0.49110    0.81100    0.68280    1.000
    H198     H        0.52630    0.87330    0.67390    1.000
    C292     C        0.51280    0.76900    0.62800    1.000
    H199     H        0.53370    0.72890    0.64360    1.000
    H200     H        0.52250    0.79910    0.60340    1.000
    C293     C        0.47700    0.71200    0.60800    1.000
    H201     H        0.48400    0.66080    0.59090    1.000
    H202     H        0.46530    0.68590    0.63280    1.000
    C294     C        0.44690    0.77000    0.57950    1.000
    H203     H        0.44740    0.75750    0.54820    1.000
    H204     H        0.42070    0.75450    0.58450    1.000
    C295     C        0.38000    0.84700    0.67200    1.000
    H205     H        0.35730    0.80940    0.65930    1.000
    H206     H        0.39790    0.84560    0.65080    1.000
    C296     C        0.40100    0.80000    0.71500    1.000
    H207     H        0.38190    0.78840    0.73360    1.000
    H208     H        0.41100    0.74090    0.70690    1.000
    C297     C        0.43500    0.85500    0.74100    1.000
    H209     H        0.45950    0.82300    0.74130    1.000
    H210     H        0.43130    0.86260    0.77170    1.000
    C298     C        0.43600    0.94900    0.71900    1.000
    H211     H        0.45490    0.98810    0.73860    1.000
    H212     H        0.44490    0.94200    0.69080    1.000
    C299     C        0.39600    0.99800    0.71000    1.000
    H213     H        0.38610    0.00290    0.73750    1.000
    H214     H        0.39900    0.05960    0.69850    1.000
    C300     C        0.36630    0.94500    0.67500    1.000
    H215     H        0.34070    0.94490    0.68400    1.000
    H216     H        0.36340    0.97440    0.64600    1.000
    C301     C        0.39270    0.02640    0.65200    1.000
    C302     C        0.35410    0.03400    0.66220    1.000
    H217     H        0.33130    0.01020    0.64410    1.000
    C303     C        0.35430    0.07530    0.69760    1.000
    H218     H        0.32990    0.08060    0.70620    1.000
    C304     C        0.38260    0.11080    0.72320    1.000
    H219     H        0.37630    0.14060    0.74810    1.000
    C305     C        0.42420    0.11390    0.72100    1.000
    H220     H        0.44430    0.14130    0.74200    1.000
    C306     C        0.42870    0.06640    0.67980    1.000
    H221     H        0.45330    0.06150    0.67150    1.000
    C307     C        0.39890    0.97380    0.61260    1.000
    H222     H        0.37570    0.95020    0.59530    1.000
    C308     C        0.42970    0.95420    0.59750    1.000
    H223     H        0.45430    0.98040    0.60920    1.000
    C309     C        0.42420    0.89000    0.56190    1.000
    H224     H        0.39940    0.86580    0.54950    1.000
    O1       O        0.45490    0.86800    0.54810    1.000
    C310     C        0.57290    0.63800    0.68990    1.000
    H225     H        0.56180    0.63410    0.65790    1.000
    H226     H        0.60130    0.62830    0.69480    1.000
    C311     C        0.55310    0.57100    0.71700    1.000
    H227     H        0.55710    0.50710    0.70870    1.000
    H228     H        0.56260    0.57850    0.74920    1.000
    C312     C        0.51010    0.59900    0.70300    1.000
    H229     H        0.50140    0.63060    0.72770    1.000
    H230     H        0.49350    0.54520    0.69490    1.000
    C313     C        0.50690    0.66400    0.66260    1.000
    H231     H        0.47930    0.67110    0.64830    1.000
    H232     H        0.52080    0.63690    0.64070    1.000
    C314     C        0.52480    0.75800    0.67800    1.000
    H233     H        0.53020    0.79340    0.65240    1.000
    H234     H        0.50750    0.79340    0.69300    1.000
    C315     C        0.56280    0.73100    0.70970    1.000
    H235     H        0.55850    0.72330    0.74030    1.000
    H236     H        0.58350    0.77610    0.70960    1.000
    C316     C        0.41590    0.61800    0.66600    1.000
    H237     H        0.43350    0.60470    0.69450    1.000
    H238     H        0.39580    0.57050    0.65990    1.000
    C317     C        0.43950    0.62300    0.62800    1.000
    H239     H        0.45690    0.57000    0.62830    1.000
    H240     H        0.45500    0.67910    0.62930    1.000
    C318     C        0.40710    0.62200    0.58600    1.000
    H241     H        0.40810    0.67730    0.56820    1.000
    H242     H        0.40970    0.56830    0.56740    1.000
    C319     C        0.36860    0.61800    0.60380    1.000
    H243     H        0.37000    0.56850    0.62600    1.000
    H244     H        0.34630    0.60530    0.57930    1.000
    C320     C        0.36340    0.71000    0.62500    1.000
    H245     H        0.36610    0.76000    0.60470    1.000
    H246     H        0.33760    0.71390    0.63340    1.000
    C321     C        0.39710    0.71200    0.66740    1.000
    H247     H        0.38670    0.72000    0.69470    1.000
    H248     H        0.41580    0.76130    0.66540    1.000
    C322     C        0.48270    0.30000    0.74470    1.000
    H249     H        0.48180    0.23530    0.75350    1.000
    H250     H        0.46070    0.31210    0.72000    1.000
    C323     C        0.52100    0.32200    0.73220    1.000
    H251     H        0.54220    0.30280    0.75650    1.000
    H252     H        0.52330    0.28640    0.70570    1.000
    C324     C        0.52720    0.41900    0.72270    1.000
    H253     H        0.55550    0.43040    0.73070    1.000
    H254     H        0.51970    0.42680    0.69020    1.000
    C325     C        0.50790    0.49200    0.74310    1.000
    H255     H        0.49390    0.53170    0.71940    1.000
    H256     H        0.52800    0.52890    0.76210    1.000
    C326     C        0.47960    0.45900    0.77050    1.000
    H257     H        0.48330    0.49590    0.79780    1.000
    H258     H        0.45300    0.47100    0.75380    1.000
    C327     C        0.48220    0.36200    0.78340    1.000
    H259     H        0.45970    0.34660    0.79690    1.000
    H260     H        0.50610    0.35250    0.80600    1.000
    C328     C        0.54630    0.87000    0.91200    1.000
    H261     H        0.53130    0.89210    0.93390    1.000
    H262     H        0.57200    0.90000    0.91920    1.000
    C329     C        0.52630    0.90500    0.86800    1.000
    H263     H        0.54630    0.92010    0.85050    1.000
    H264     H        0.51260    0.96140    0.87220    1.000
    C330     C        0.49730    0.84000    0.84040    1.000
    H265     H        0.50890    0.81100    0.81720    1.000
    H266     H        0.47370    0.87330    0.82610    1.000
    C331     C        0.48720    0.76900    0.87200    1.000
    H267     H        0.46630    0.72890    0.85640    1.000
    H268     H        0.47750    0.79910    0.89660    1.000
    C332     C        0.52300    0.71200    0.89200    1.000
    H269     H        0.51600    0.66080    0.90910    1.000
    H270     H        0.53470    0.68590    0.86720    1.000
    C333     C        0.55310    0.77000    0.92050    1.000
    H271     H        0.55260    0.75750    0.95180    1.000
    H272     H        0.57930    0.75450    0.91550    1.000
    C334     C        0.62000    0.84700    0.82800    1.000
    H273     H        0.64270    0.80940    0.84070    1.000
    H274     H        0.60210    0.84560    0.84920    1.000
    C335     C        0.59900    0.80000    0.78500    1.000
    H275     H        0.61810    0.78840    0.76640    1.000
    H276     H        0.58900    0.74090    0.79310    1.000
    C336     C        0.56500    0.85500    0.75900    1.000
    H277     H        0.54050    0.82300    0.75870    1.000
    H278     H        0.56870    0.86260    0.72830    1.000
    C337     C        0.56400    0.94900    0.78100    1.000
    H279     H        0.54510    0.98810    0.76140    1.000
    H280     H        0.55510    0.94200    0.80920    1.000
    C338     C        0.60400    0.99800    0.79000    1.000
    H281     H        0.61390    0.00290    0.76250    1.000
    H282     H        0.60100    0.05960    0.80150    1.000
    C339     C        0.63370    0.94500    0.82500    1.000
    H283     H        0.65930    0.94490    0.81600    1.000
    H284     H        0.63660    0.97440    0.85400    1.000
    C340     C        0.60730    0.02640    0.84800    1.000
    C341     C        0.64590    0.03400    0.83780    1.000
    H285     H        0.66870    0.01020    0.85590    1.000
    C342     C        0.64570    0.07530    0.80240    1.000
    H286     H        0.67010    0.08060    0.79380    1.000
    C343     C        0.61740    0.11080    0.77680    1.000
    H287     H        0.62370    0.14060    0.75190    1.000
    C344     C        0.57580    0.11390    0.77900    1.000
    H288     H        0.55570    0.14130    0.75800    1.000
    C345     C        0.57130    0.06640    0.82020    1.000
    H289     H        0.54670    0.06150    0.82850    1.000
    C346     C        0.60110    0.97380    0.88740    1.000
    H290     H        0.62430    0.95020    0.90470    1.000
    C347     C        0.57030    0.95420    0.90250    1.000
    H291     H        0.54570    0.98040    0.89080    1.000
    C348     C        0.57580    0.89000    0.93810    1.000
    H292     H        0.60060    0.86580    0.95050    1.000
    O2       O        0.54510    0.86800    0.95190    1.000
    C349     C        0.42710    0.63800    0.81010    1.000
    H293     H        0.43820    0.63410    0.84210    1.000
    H294     H        0.39870    0.62830    0.80520    1.000
    C350     C        0.44690    0.57100    0.78300    1.000
    H295     H        0.44290    0.50710    0.79130    1.000
    H296     H        0.43740    0.57850    0.75080    1.000
    C351     C        0.48990    0.59900    0.79700    1.000
    H297     H        0.49860    0.63060    0.77230    1.000
    H298     H        0.50650    0.54520    0.80510    1.000
    C352     C        0.49310    0.66400    0.83740    1.000
    H299     H        0.52070    0.67110    0.85170    1.000
    H300     H        0.47920    0.63690    0.85930    1.000
    C353     C        0.47520    0.75800    0.82200    1.000
    H301     H        0.46980    0.79340    0.84760    1.000
    H302     H        0.49250    0.79340    0.80700    1.000
    C354     C        0.43720    0.73100    0.79030    1.000
    H303     H        0.44150    0.72330    0.75970    1.000
    H304     H        0.41650    0.77610    0.79040    1.000
    C355     C        0.58410    0.61800    0.83400    1.000
    H305     H        0.56650    0.60470    0.80550    1.000
    H306     H        0.60420    0.57050    0.84010    1.000
    C356     C        0.56050    0.62300    0.87200    1.000
    H307     H        0.54310    0.57000    0.87170    1.000
    H308     H        0.54500    0.67910    0.87070    1.000
    C357     C        0.59290    0.62200    0.91400    1.000
    H309     H        0.59190    0.67730    0.93180    1.000
    H310     H        0.59030    0.56830    0.93260    1.000
    C358     C        0.63140    0.61800    0.89620    1.000
    H311     H        0.63000    0.56850    0.87400    1.000
    H312     H        0.65370    0.60530    0.92070    1.000
    C359     C        0.63660    0.71000    0.87500    1.000
    H313     H        0.63390    0.76000    0.89530    1.000
    H314     H        0.66240    0.71390    0.86660    1.000
    C360     C        0.60290    0.71200    0.83260    1.000
    H315     H        0.61330    0.72000    0.80530    1.000
    H316     H        0.58420    0.76130    0.83460    1.000
    C361     C        0.51730    0.30000    0.75530    1.000
    H317     H        0.51820    0.23530    0.74650    1.000
    H318     H        0.53930    0.31210    0.78000    1.000
    C362     C        0.47900    0.32200    0.76780    1.000
    H319     H        0.45780    0.30280    0.74350    1.000
    H320     H        0.47670    0.28640    0.79430    1.000
    C363     C        0.47280    0.41900    0.77730    1.000
    H321     H        0.44450    0.43040    0.76930    1.000
    H322     H        0.48030    0.42680    0.80980    1.000
    C364     C        0.49210    0.49200    0.75690    1.000
    H323     H        0.50610    0.53170    0.78060    1.000
    H324     H        0.47200    0.52890    0.73790    1.000
    C365     C        0.52040    0.45900    0.72950    1.000
    H325     H        0.51670    0.49590    0.70220    1.000
    H326     H        0.54700    0.47100    0.74620    1.000
    C366     C        0.51780    0.36200    0.71660    1.000
    H327     H        0.54030    0.34660    0.70310    1.000
    H328     H        0.49390    0.35250    0.69400    1.000
    C367     C        0.95370    0.37000    0.58800    1.000
    H329     H        0.96870    0.39210    0.56610    1.000
    H330     H        0.92800    0.40000    0.58080    1.000
    C368     C        0.97370    0.40500    0.63200    1.000
    H331     H        0.95370    0.42010    0.64950    1.000
    H332     H        0.98740    0.46140    0.62780    1.000
    C369     C        0.00270    0.34000    0.65960    1.000
    H333     H        0.99110    0.31100    0.68280    1.000
    H334     H        0.02630    0.37330    0.67390    1.000
    C370     C        0.01280    0.26900    0.62800    1.000
    H335     H        0.03370    0.22890    0.64360    1.000
    H336     H        0.02250    0.29910    0.60340    1.000
    C371     C        0.97700    0.21200    0.60800    1.000
    H337     H        0.98400    0.16080    0.59090    1.000
    H338     H        0.96530    0.18590    0.63280    1.000
    C372     C        0.94690    0.27000    0.57950    1.000
    H339     H        0.94740    0.25750    0.54820    1.000
    H340     H        0.92070    0.25450    0.58450    1.000
    C373     C        0.88000    0.34700    0.67200    1.000
    H341     H        0.85730    0.30940    0.65930    1.000
    H342     H        0.89790    0.34560    0.65080    1.000
    C374     C        0.90100    0.30000    0.71500    1.000
    H343     H        0.88190    0.28840    0.73360    1.000
    H344     H        0.91100    0.24090    0.70690    1.000
    C375     C        0.93500    0.35500    0.74100    1.000
    H345     H        0.95950    0.32300    0.74130    1.000
    H346     H        0.93130    0.36260    0.77170    1.000
    C376     C        0.93600    0.44900    0.71900    1.000
    H347     H        0.95490    0.48810    0.73860    1.000
    H348     H        0.94490    0.44200    0.69080    1.000
    C377     C        0.89600    0.49800    0.71000    1.000
    H349     H        0.88610    0.50290    0.73750    1.000
    H350     H        0.89900    0.55960    0.69850    1.000
    C378     C        0.86630    0.44500    0.67500    1.000
    H351     H        0.84070    0.44490    0.68400    1.000
    H352     H        0.86340    0.47440    0.64600    1.000
    C379     C        0.89270    0.52640    0.65200    1.000
    C380     C        0.85410    0.53400    0.66220    1.000
    H353     H        0.83130    0.51020    0.64410    1.000
    C381     C        0.85430    0.57530    0.69760    1.000
    H354     H        0.82990    0.58060    0.70620    1.000
    C382     C        0.88260    0.61080    0.72320    1.000
    H355     H        0.87630    0.64060    0.74810    1.000
    C383     C        0.92420    0.61390    0.72100    1.000
    H356     H        0.94430    0.64130    0.74200    1.000
    C384     C        0.92870    0.56640    0.67980    1.000
    H357     H        0.95330    0.56150    0.67150    1.000
    C385     C        0.89890    0.47380    0.61260    1.000
    H358     H        0.87570    0.45020    0.59530    1.000
    C386     C        0.92970    0.45420    0.59750    1.000
    H359     H        0.95430    0.48040    0.60920    1.000
    C387     C        0.92420    0.39000    0.56190    1.000
    H360     H        0.89940    0.36580    0.54950    1.000
    O3       O        0.95490    0.36800    0.54810    1.000
    C388     C        0.07290    0.13800    0.68990    1.000
    H361     H        0.06180    0.13410    0.65790    1.000
    H362     H        0.10130    0.12830    0.69480    1.000
    C389     C        0.05310    0.07100    0.71700    1.000
    H363     H        0.05710    0.00710    0.70870    1.000
    H364     H        0.06260    0.07850    0.74920    1.000
    C390     C        0.01010    0.09900    0.70300    1.000
    H365     H        0.00140    0.13060    0.72770    1.000
    H366     H        0.99350    0.04520    0.69490    1.000
    C391     C        0.00690    0.16400    0.66260    1.000
    H367     H        0.97930    0.17110    0.64830    1.000
    H368     H        0.02080    0.13690    0.64070    1.000
    C392     C        0.02480    0.25800    0.67800    1.000
    H369     H        0.03020    0.29340    0.65240    1.000
    H370     H        0.00750    0.29340    0.69300    1.000
    C393     C        0.06280    0.23100    0.70970    1.000
    H371     H        0.05850    0.22330    0.74030    1.000
    H372     H        0.08350    0.27610    0.70960    1.000
    C394     C        0.91590    0.11800    0.66600    1.000
    H373     H        0.93350    0.10470    0.69450    1.000
    H374     H        0.89580    0.07050    0.65990    1.000
    C395     C        0.93950    0.12300    0.62800    1.000
    H375     H        0.95690    0.07000    0.62830    1.000
    H376     H        0.95500    0.17910    0.62930    1.000
    C396     C        0.90710    0.12200    0.58600    1.000
    H377     H        0.90810    0.17730    0.56820    1.000
    H378     H        0.90970    0.06830    0.56740    1.000
    C397     C        0.86860    0.11800    0.60380    1.000
    H379     H        0.87000    0.06850    0.62600    1.000
    H380     H        0.84630    0.10530    0.57930    1.000
    C398     C        0.86340    0.21000    0.62500    1.000
    H381     H        0.86610    0.26000    0.60470    1.000
    H382     H        0.83760    0.21390    0.63340    1.000
    C399     C        0.89710    0.21200    0.66740    1.000
    H383     H        0.88670    0.22000    0.69470    1.000
    H384     H        0.91580    0.26130    0.66540    1.000
    C400     C        0.98270    0.80000    0.74470    1.000
    H385     H        0.98180    0.73530    0.75350    1.000
    H386     H        0.96070    0.81210    0.72000    1.000
    C401     C        0.02100    0.82200    0.73220    1.000
    H387     H        0.04220    0.80280    0.75650    1.000
    H388     H        0.02330    0.78640    0.70570    1.000
    C402     C        0.02720    0.91900    0.72270    1.000
    H389     H        0.05550    0.93040    0.73070    1.000
    H390     H        0.01970    0.92680    0.69020    1.000
    C403     C        0.00790    0.99200    0.74310    1.000
    H391     H        0.99390    0.03170    0.71940    1.000
    H392     H        0.02800    0.02890    0.76210    1.000
    C404     C        0.97960    0.95900    0.77050    1.000
    H393     H        0.98330    0.99590    0.79780    1.000
    H394     H        0.95300    0.97100    0.75380    1.000
    C405     C        0.98220    0.86200    0.78340    1.000
    H395     H        0.95970    0.84660    0.79690    1.000
    H396     H        0.00610    0.85250    0.80600    1.000
    C406     C        0.04630    0.37000    0.91200    1.000
    H397     H        0.03130    0.39210    0.93390    1.000
    H398     H        0.07200    0.40000    0.91920    1.000
    C407     C        0.02630    0.40500    0.86800    1.000
    H399     H        0.04630    0.42010    0.85050    1.000
    H400     H        0.01260    0.46140    0.87220    1.000
    C408     C        0.99730    0.34000    0.84040    1.000
    H401     H        0.00890    0.31100    0.81720    1.000
    H402     H        0.97370    0.37330    0.82610    1.000
    C409     C        0.98720    0.26900    0.87200    1.000
    H403     H        0.96630    0.22890    0.85640    1.000
    H404     H        0.97750    0.29910    0.89660    1.000
    C410     C        0.02300    0.21200    0.89200    1.000
    H405     H        0.01600    0.16080    0.90910    1.000
    H406     H        0.03470    0.18590    0.86720    1.000
    C411     C        0.05310    0.27000    0.92050    1.000
    H407     H        0.05260    0.25750    0.95180    1.000
    H408     H        0.07930    0.25450    0.91550    1.000
    C412     C        0.12000    0.34700    0.82800    1.000
    H409     H        0.14270    0.30940    0.84070    1.000
    H410     H        0.10210    0.34560    0.84920    1.000
    C413     C        0.09900    0.30000    0.78500    1.000
    H411     H        0.11810    0.28840    0.76640    1.000
    H412     H        0.08900    0.24090    0.79310    1.000
    C414     C        0.06500    0.35500    0.75900    1.000
    H413     H        0.04050    0.32300    0.75870    1.000
    H414     H        0.06870    0.36260    0.72830    1.000
    C415     C        0.06400    0.44900    0.78100    1.000
    H415     H        0.04510    0.48810    0.76140    1.000
    H416     H        0.05510    0.44200    0.80920    1.000
    C416     C        0.10400    0.49800    0.79000    1.000
    H417     H        0.11390    0.50290    0.76250    1.000
    H418     H        0.10100    0.55960    0.80150    1.000
    C417     C        0.13370    0.44500    0.82500    1.000
    H419     H        0.15930    0.44490    0.81600    1.000
    H420     H        0.13660    0.47440    0.85400    1.000
    C418     C        0.10730    0.52640    0.84800    1.000
    C419     C        0.14590    0.53400    0.83780    1.000
    H421     H        0.16870    0.51020    0.85590    1.000
    C420     C        0.14570    0.57530    0.80240    1.000
    H422     H        0.17010    0.58060    0.79380    1.000
    C421     C        0.11740    0.61080    0.77680    1.000
    H423     H        0.12370    0.64060    0.75190    1.000
    C422     C        0.07580    0.61390    0.77900    1.000
    H424     H        0.05570    0.64130    0.75800    1.000
    C423     C        0.07130    0.56640    0.82020    1.000
    H425     H        0.04670    0.56150    0.82850    1.000
    C424     C        0.10110    0.47380    0.88740    1.000
    H426     H        0.12430    0.45020    0.90470    1.000
    C425     C        0.07030    0.45420    0.90250    1.000
    H427     H        0.04570    0.48040    0.89080    1.000
    C426     C        0.07580    0.39000    0.93810    1.000
    H428     H        0.10060    0.36580    0.95050    1.000
    O4       O        0.04510    0.36800    0.95190    1.000
    C427     C        0.92710    0.13800    0.81010    1.000
    H429     H        0.93820    0.13410    0.84210    1.000
    H430     H        0.89870    0.12830    0.80520    1.000
    C428     C        0.94690    0.07100    0.78300    1.000
    H431     H        0.94290    0.00710    0.79130    1.000
    H432     H        0.93740    0.07850    0.75080    1.000
    C429     C        0.98990    0.09900    0.79700    1.000
    H433     H        0.99860    0.13060    0.77230    1.000
    H434     H        0.00650    0.04520    0.80510    1.000
    C430     C        0.99310    0.16400    0.83740    1.000
    H435     H        0.02070    0.17110    0.85170    1.000
    H436     H        0.97920    0.13690    0.85930    1.000
    C431     C        0.97520    0.25800    0.82200    1.000
    H437     H        0.96980    0.29340    0.84760    1.000
    H438     H        0.99250    0.29340    0.80700    1.000
    C432     C        0.93720    0.23100    0.79030    1.000
    H439     H        0.94150    0.22330    0.75970    1.000
    H440     H        0.91650    0.27610    0.79040    1.000
    C433     C        0.08410    0.11800    0.83400    1.000
    H441     H        0.06650    0.10470    0.80550    1.000
    H442     H        0.10420    0.07050    0.84010    1.000
    C434     C        0.06050    0.12300    0.87200    1.000
    H443     H        0.04310    0.07000    0.87170    1.000
    H444     H        0.04500    0.17910    0.87070    1.000
    C435     C        0.09290    0.12200    0.91400    1.000
    H445     H        0.09190    0.17730    0.93180    1.000
    H446     H        0.09030    0.06830    0.93260    1.000
    C436     C        0.13140    0.11800    0.89620    1.000
    H447     H        0.13000    0.06850    0.87400    1.000
    H448     H        0.15370    0.10530    0.92070    1.000
    C437     C        0.13660    0.21000    0.87500    1.000
    H449     H        0.13390    0.26000    0.89530    1.000
    H450     H        0.16240    0.21390    0.86660    1.000
    C438     C        0.10290    0.21200    0.83260    1.000
    H451     H        0.11330    0.22000    0.80530    1.000
    H452     H        0.08420    0.26130    0.83460    1.000
    C439     C        0.01730    0.80000    0.75530    1.000
    H453     H        0.01820    0.73530    0.74650    1.000
    H454     H        0.03930    0.81210    0.78000    1.000
    C440     C        0.97900    0.82200    0.76780    1.000
    H455     H        0.95780    0.80280    0.74350    1.000
    H456     H        0.97670    0.78640    0.79430    1.000
    C441     C        0.97280    0.91900    0.77730    1.000
    H457     H        0.94450    0.93040    0.76930    1.000
    H458     H        0.98030    0.92680    0.80980    1.000
    C442     C        0.99210    0.99200    0.75690    1.000
    H459     H        0.00610    0.03170    0.78060    1.000
    H460     H        0.97200    0.02890    0.73790    1.000
    C443     C        0.02040    0.95900    0.72950    1.000
    H461     H        0.01670    0.99590    0.70220    1.000
    H462     H        0.04700    0.97100    0.74620    1.000
    C444     C        0.01780    0.86200    0.71660    1.000
    H463     H        0.04030    0.84660    0.70310    1.000
    H464     H        0.99390    0.85250    0.69400    1.000
    C445     C        0.54630    0.13000    0.41200    1.000
    H465     H        0.53130    0.10790    0.43390    1.000
    H466     H        0.57200    0.10000    0.41920    1.000
    C446     C        0.52630    0.09500    0.36800    1.000
    H467     H        0.54630    0.07990    0.35050    1.000
    H468     H        0.51260    0.03860    0.37220    1.000
    C447     C        0.49730    0.16000    0.34040    1.000
    H469     H        0.50890    0.18900    0.31720    1.000
    H470     H        0.47370    0.12670    0.32610    1.000
    C448     C        0.48720    0.23100    0.37200    1.000
    H471     H        0.46630    0.27110    0.35640    1.000
    H472     H        0.47750    0.20090    0.39660    1.000
    C449     C        0.52300    0.28800    0.39200    1.000
    H473     H        0.51600    0.33920    0.40910    1.000
    H474     H        0.53470    0.31410    0.36720    1.000
    C450     C        0.55310    0.23000    0.42050    1.000
    H475     H        0.55260    0.24250    0.45180    1.000
    H476     H        0.57930    0.24550    0.41550    1.000
    C451     C        0.62000    0.15300    0.32800    1.000
    H477     H        0.64270    0.19060    0.34070    1.000
    H478     H        0.60210    0.15440    0.34920    1.000
    C452     C        0.59900    0.20000    0.28500    1.000
    H479     H        0.61810    0.21160    0.26640    1.000
    H480     H        0.58900    0.25910    0.29310    1.000
    C453     C        0.56500    0.14500    0.25900    1.000
    H481     H        0.54050    0.17700    0.25870    1.000
    H482     H        0.56870    0.13740    0.22830    1.000
    C454     C        0.56400    0.05100    0.28100    1.000
    H483     H        0.54510    0.01190    0.26140    1.000
    H484     H        0.55510    0.05800    0.30920    1.000
    C455     C        0.60400    0.00200    0.29000    1.000
    H485     H        0.61390    0.99710    0.26250    1.000
    H486     H        0.60100    0.94040    0.30150    1.000
    C456     C        0.63370    0.05500    0.32500    1.000
    H487     H        0.65930    0.05510    0.31600    1.000
    H488     H        0.63660    0.02560    0.35400    1.000
    C457     C        0.60730    0.97360    0.34800    1.000
    C458     C        0.64590    0.96600    0.33780    1.000
    H489     H        0.66870    0.98980    0.35590    1.000
    C459     C        0.64570    0.92470    0.30240    1.000
    H490     H        0.67010    0.91940    0.29380    1.000
    C460     C        0.61740    0.88920    0.27680    1.000
    H491     H        0.62370    0.85940    0.25190    1.000
    C461     C        0.57580    0.88610    0.27900    1.000
    H492     H        0.55570    0.85870    0.25800    1.000
    C462     C        0.57130    0.93360    0.32020    1.000
    H493     H        0.54670    0.93850    0.32850    1.000
    C463     C        0.60110    0.02620    0.38740    1.000
    H494     H        0.62430    0.04980    0.40470    1.000
    C464     C        0.57030    0.04580    0.40250    1.000
    H495     H        0.54570    0.01960    0.39080    1.000
    C465     C        0.57580    0.11000    0.43810    1.000
    H496     H        0.60060    0.13420    0.45050    1.000
    O5       O        0.54510    0.13200    0.45190    1.000
    C466     C        0.42710    0.36200    0.31010    1.000
    H497     H        0.43820    0.36590    0.34210    1.000
    H498     H        0.39870    0.37170    0.30520    1.000
    C467     C        0.44690    0.42900    0.28300    1.000
    H499     H        0.44290    0.49290    0.29130    1.000
    H500     H        0.43740    0.42150    0.25080    1.000
    C468     C        0.48990    0.40100    0.29700    1.000
    H501     H        0.49860    0.36940    0.27230    1.000
    H502     H        0.50650    0.45480    0.30510    1.000
    C469     C        0.49310    0.33600    0.33740    1.000
    H503     H        0.52070    0.32890    0.35170    1.000
    H504     H        0.47920    0.36310    0.35930    1.000
    C470     C        0.47520    0.24200    0.32200    1.000
    H505     H        0.46980    0.20660    0.34760    1.000
    H506     H        0.49250    0.20660    0.30700    1.000
    C471     C        0.43720    0.26900    0.29030    1.000
    H507     H        0.44150    0.27670    0.25970    1.000
    H508     H        0.41650    0.22390    0.29040    1.000
    C472     C        0.58410    0.38200    0.33400    1.000
    H509     H        0.56650    0.39530    0.30550    1.000
    H510     H        0.60420    0.42950    0.34010    1.000
    C473     C        0.56050    0.37700    0.37200    1.000
    H511     H        0.54310    0.43000    0.37170    1.000
    H512     H        0.54500    0.32090    0.37070    1.000
    C474     C        0.59290    0.37800    0.41400    1.000
    H513     H        0.59190    0.32270    0.43180    1.000
    H514     H        0.59030    0.43170    0.43260    1.000
    C475     C        0.63140    0.38200    0.39620    1.000
    H515     H        0.63000    0.43150    0.37400    1.000
    H516     H        0.65370    0.39470    0.42070    1.000
    C476     C        0.63660    0.29000    0.37500    1.000
    H517     H        0.63390    0.24000    0.39530    1.000
    H518     H        0.66240    0.28610    0.36660    1.000
    C477     C        0.60290    0.28800    0.33260    1.000
    H519     H        0.61330    0.28000    0.30530    1.000
    H520     H        0.58420    0.23870    0.33460    1.000
    C478     C        0.51730    0.70000    0.25530    1.000
    H521     H        0.51820    0.76470    0.24650    1.000
    H522     H        0.53930    0.68790    0.28000    1.000
    C479     C        0.47900    0.67800    0.26780    1.000
    H523     H        0.45780    0.69720    0.24350    1.000
    H524     H        0.47670    0.71360    0.29430    1.000
    C480     C        0.47280    0.58100    0.27730    1.000
    H525     H        0.44450    0.56960    0.26930    1.000
    H526     H        0.48030    0.57320    0.30980    1.000
    C481     C        0.49210    0.50800    0.25690    1.000
    H527     H        0.50610    0.46830    0.28060    1.000
    H528     H        0.47200    0.47110    0.23790    1.000
    C482     C        0.52040    0.54100    0.22950    1.000
    H529     H        0.51670    0.50410    0.20220    1.000
    H530     H        0.54700    0.52900    0.24620    1.000
    C483     C        0.51780    0.63800    0.21660    1.000
    H531     H        0.54030    0.65340    0.20310    1.000
    H532     H        0.49390    0.64750    0.19400    1.000
    C484     C        0.45370    0.13000    0.08800    1.000
    H533     H        0.46870    0.10790    0.06610    1.000
    H534     H        0.42800    0.10000    0.08080    1.000
    C485     C        0.47370    0.09500    0.13200    1.000
    H535     H        0.45370    0.07990    0.14950    1.000
    H536     H        0.48740    0.03860    0.12780    1.000
    C486     C        0.50270    0.16000    0.15960    1.000
    H537     H        0.49110    0.18900    0.18280    1.000
    H538     H        0.52630    0.12670    0.17390    1.000
    C487     C        0.51280    0.23100    0.12800    1.000
    H539     H        0.53370    0.27110    0.14360    1.000
    H540     H        0.52250    0.20090    0.10340    1.000
    C488     C        0.47700    0.28800    0.10800    1.000
    H541     H        0.48400    0.33920    0.09090    1.000
    H542     H        0.46530    0.31410    0.13280    1.000
    C489     C        0.44690    0.23000    0.07950    1.000
    H543     H        0.44740    0.24250    0.04820    1.000
    H544     H        0.42070    0.24550    0.08450    1.000
    C490     C        0.38000    0.15300    0.17200    1.000
    H545     H        0.35730    0.19060    0.15930    1.000
    H546     H        0.39790    0.15440    0.15080    1.000
    C491     C        0.40100    0.20000    0.21500    1.000
    H547     H        0.38190    0.21160    0.23360    1.000
    H548     H        0.41100    0.25910    0.20690    1.000
    C492     C        0.43500    0.14500    0.24100    1.000
    H549     H        0.45950    0.17700    0.24130    1.000
    H550     H        0.43130    0.13740    0.27170    1.000
    C493     C        0.43600    0.05100    0.21900    1.000
    H551     H        0.45490    0.01190    0.23860    1.000
    H552     H        0.44490    0.05800    0.19080    1.000
    C494     C        0.39600    0.00200    0.21000    1.000
    H553     H        0.38610    0.99710    0.23750    1.000
    H554     H        0.39900    0.94040    0.19850    1.000
    C495     C        0.36630    0.05500    0.17500    1.000
    H555     H        0.34070    0.05510    0.18400    1.000
    H556     H        0.36340    0.02560    0.14600    1.000
    C496     C        0.39270    0.97360    0.15200    1.000
    C497     C        0.35410    0.96600    0.16220    1.000
    H557     H        0.33130    0.98980    0.14410    1.000
    C498     C        0.35430    0.92470    0.19760    1.000
    H558     H        0.32990    0.91940    0.20620    1.000
    C499     C        0.38260    0.88920    0.22320    1.000
    H559     H        0.37630    0.85940    0.24810    1.000
    C500     C        0.42420    0.88610    0.22100    1.000
    H560     H        0.44430    0.85870    0.24200    1.000
    C501     C        0.42870    0.93360    0.17980    1.000
    H561     H        0.45330    0.93850    0.17150    1.000
    C502     C        0.39890    0.02620    0.11260    1.000
    H562     H        0.37570    0.04980    0.09530    1.000
    C503     C        0.42970    0.04580    0.09750    1.000
    H563     H        0.45430    0.01960    0.10920    1.000
    C504     C        0.42420    0.11000    0.06190    1.000
    H564     H        0.39940    0.13420    0.04950    1.000
    O6       O        0.45490    0.13200    0.04810    1.000
    C505     C        0.57290    0.36200    0.18990    1.000
    H565     H        0.56180    0.36590    0.15790    1.000
    H566     H        0.60130    0.37170    0.19480    1.000
    C506     C        0.55310    0.42900    0.21700    1.000
    H567     H        0.55710    0.49290    0.20870    1.000
    H568     H        0.56260    0.42150    0.24920    1.000
    C507     C        0.51010    0.40100    0.20300    1.000
    H569     H        0.50140    0.36940    0.22770    1.000
    H570     H        0.49350    0.45480    0.19490    1.000
    C508     C        0.50690    0.33600    0.16260    1.000
    H571     H        0.47930    0.32890    0.14830    1.000
    H572     H        0.52080    0.36310    0.14070    1.000
    C509     C        0.52480    0.24200    0.17800    1.000
    H573     H        0.53020    0.20660    0.15240    1.000
    H574     H        0.50750    0.20660    0.19300    1.000
    C510     C        0.56280    0.26900    0.20970    1.000
    H575     H        0.55850    0.27670    0.24030    1.000
    H576     H        0.58350    0.22390    0.20960    1.000
    C511     C        0.41590    0.38200    0.16600    1.000
    H577     H        0.43350    0.39530    0.19450    1.000
    H578     H        0.39580    0.42950    0.15990    1.000
    C512     C        0.43950    0.37700    0.12800    1.000
    H579     H        0.45690    0.43000    0.12830    1.000
    H580     H        0.45500    0.32090    0.12930    1.000
    C513     C        0.40710    0.37800    0.08600    1.000
    H581     H        0.40810    0.32270    0.06820    1.000
    H582     H        0.40970    0.43170    0.06740    1.000
    C514     C        0.36860    0.38200    0.10380    1.000
    H583     H        0.37000    0.43150    0.12600    1.000
    H584     H        0.34630    0.39470    0.07930    1.000
    C515     C        0.36340    0.29000    0.12500    1.000
    H585     H        0.36610    0.24000    0.10470    1.000
    H586     H        0.33760    0.28610    0.13340    1.000
    C516     C        0.39710    0.28800    0.16740    1.000
    H587     H        0.38670    0.28000    0.19470    1.000
    H588     H        0.41580    0.23870    0.16540    1.000
    C517     C        0.48270    0.70000    0.24470    1.000
    H589     H        0.48180    0.76470    0.25350    1.000
    H590     H        0.46070    0.68790    0.22000    1.000
    C518     C        0.52100    0.67800    0.23220    1.000
    H591     H        0.54220    0.69720    0.25650    1.000
    H592     H        0.52330    0.71360    0.20570    1.000
    C519     C        0.52720    0.58100    0.22270    1.000
    H593     H        0.55550    0.56960    0.23070    1.000
    H594     H        0.51970    0.57320    0.19020    1.000
    C520     C        0.50790    0.50800    0.24310    1.000
    H595     H        0.49390    0.46830    0.21940    1.000
    H596     H        0.52800    0.47110    0.26210    1.000
    C521     C        0.47960    0.54100    0.27050    1.000
    H597     H        0.48330    0.50410    0.29780    1.000
    H598     H        0.45300    0.52900    0.25380    1.000
    C522     C        0.48220    0.63800    0.28340    1.000
    H599     H        0.45970    0.65340    0.29690    1.000
    H600     H        0.50610    0.64750    0.30600    1.000
    C523     C        0.04630    0.63000    0.41200    1.000
    H601     H        0.03130    0.60790    0.43390    1.000
    H602     H        0.07200    0.60000    0.41920    1.000
    C524     C        0.02630    0.59500    0.36800    1.000
    H603     H        0.04630    0.57990    0.35050    1.000
    H604     H        0.01260    0.53860    0.37220    1.000
    C525     C        0.99730    0.66000    0.34040    1.000
    H605     H        0.00890    0.68900    0.31720    1.000
    H606     H        0.97370    0.62670    0.32610    1.000
    C526     C        0.98720    0.73100    0.37200    1.000
    H607     H        0.96630    0.77110    0.35640    1.000
    H608     H        0.97750    0.70090    0.39660    1.000
    C527     C        0.02300    0.78800    0.39200    1.000
    H609     H        0.01600    0.83920    0.40910    1.000
    H610     H        0.03470    0.81410    0.36720    1.000
    C528     C        0.05310    0.73000    0.42050    1.000
    H611     H        0.05260    0.74250    0.45180    1.000
    H612     H        0.07930    0.74550    0.41550    1.000
    C529     C        0.12000    0.65300    0.32800    1.000
    H613     H        0.14270    0.69060    0.34070    1.000
    H614     H        0.10210    0.65440    0.34920    1.000
    C530     C        0.09900    0.70000    0.28500    1.000
    H615     H        0.11810    0.71160    0.26640    1.000
    H616     H        0.08900    0.75910    0.29310    1.000
    C531     C        0.06500    0.64500    0.25900    1.000
    H617     H        0.04050    0.67700    0.25870    1.000
    H618     H        0.06870    0.63740    0.22830    1.000
    C532     C        0.06400    0.55100    0.28100    1.000
    H619     H        0.04510    0.51190    0.26140    1.000
    H620     H        0.05510    0.55800    0.30920    1.000
    C533     C        0.10400    0.50200    0.29000    1.000
    H621     H        0.11390    0.49710    0.26250    1.000
    H622     H        0.10100    0.44040    0.30150    1.000
    C534     C        0.13370    0.55500    0.32500    1.000
    H623     H        0.15930    0.55510    0.31600    1.000
    H624     H        0.13660    0.52560    0.35400    1.000
    C535     C        0.10730    0.47360    0.34800    1.000
    C536     C        0.14590    0.46600    0.33780    1.000
    H625     H        0.16870    0.48980    0.35590    1.000
    C537     C        0.14570    0.42470    0.30240    1.000
    H626     H        0.17010    0.41940    0.29380    1.000
    C538     C        0.11740    0.38920    0.27680    1.000
    H627     H        0.12370    0.35940    0.25190    1.000
    C539     C        0.07580    0.38610    0.27900    1.000
    H628     H        0.05570    0.35870    0.25800    1.000
    C540     C        0.07130    0.43360    0.32020    1.000
    H629     H        0.04670    0.43850    0.32850    1.000
    C541     C        0.10110    0.52620    0.38740    1.000
    H630     H        0.12430    0.54980    0.40470    1.000
    C542     C        0.07030    0.54580    0.40250    1.000
    H631     H        0.04570    0.51960    0.39080    1.000
    C543     C        0.07580    0.61000    0.43810    1.000
    H632     H        0.10060    0.63420    0.45050    1.000
    O7       O        0.04510    0.63200    0.45190    1.000
    C544     C        0.92710    0.86200    0.31010    1.000
    H633     H        0.93820    0.86590    0.34210    1.000
    H634     H        0.89870    0.87170    0.30520    1.000
    C545     C        0.94690    0.92900    0.28300    1.000
    H635     H        0.94290    0.99290    0.29130    1.000
    H636     H        0.93740    0.92150    0.25080    1.000
    C546     C        0.98990    0.90100    0.29700    1.000
    H637     H        0.99860    0.86940    0.27230    1.000
    H638     H        0.00650    0.95480    0.30510    1.000
    C547     C        0.99310    0.83600    0.33740    1.000
    H639     H        0.02070    0.82890    0.35170    1.000
    H640     H        0.97920    0.86310    0.35930    1.000
    C548     C        0.97520    0.74200    0.32200    1.000
    H641     H        0.96980    0.70660    0.34760    1.000
    H642     H        0.99250    0.70660    0.30700    1.000
    C549     C        0.93720    0.76900    0.29030    1.000
    H643     H        0.94150    0.77670    0.25970    1.000
    H644     H        0.91650    0.72390    0.29040    1.000
    C550     C        0.08410    0.88200    0.33400    1.000
    H645     H        0.06650    0.89530    0.30550    1.000
    H646     H        0.10420    0.92950    0.34010    1.000
    C551     C        0.06050    0.87700    0.37200    1.000
    H647     H        0.04310    0.93000    0.37170    1.000
    H648     H        0.04500    0.82090    0.37070    1.000
    C552     C        0.09290    0.87800    0.41400    1.000
    H649     H        0.09190    0.82270    0.43180    1.000
    H650     H        0.09030    0.93170    0.43260    1.000
    C553     C        0.13140    0.88200    0.39620    1.000
    H651     H        0.13000    0.93150    0.37400    1.000
    H652     H        0.15370    0.89470    0.42070    1.000
    C554     C        0.13660    0.79000    0.37500    1.000
    H653     H        0.13390    0.74000    0.39530    1.000
    H654     H        0.16240    0.78610    0.36660    1.000
    C555     C        0.10290    0.78800    0.33260    1.000
    H655     H        0.11330    0.78000    0.30530    1.000
    H656     H        0.08420    0.73870    0.33460    1.000
    C556     C        0.01730    0.20000    0.25530    1.000
    H657     H        0.01820    0.26470    0.24650    1.000
    H658     H        0.03930    0.18790    0.28000    1.000
    C557     C        0.97900    0.17800    0.26780    1.000
    H659     H        0.95780    0.19720    0.24350    1.000
    H660     H        0.97670    0.21360    0.29430    1.000
    C558     C        0.97280    0.08100    0.27730    1.000
    H661     H        0.94450    0.06960    0.26930    1.000
    H662     H        0.98030    0.07320    0.30980    1.000
    C559     C        0.99210    0.00800    0.25690    1.000
    H663     H        0.00610    0.96830    0.28060    1.000
    H664     H        0.97200    0.97110    0.23790    1.000
    C560     C        0.02040    0.04100    0.22950    1.000
    H665     H        0.01670    0.00410    0.20220    1.000
    H666     H        0.04700    0.02900    0.24620    1.000
    C561     C        0.01780    0.13800    0.21660    1.000
    H667     H        0.04030    0.15340    0.20310    1.000
    H668     H        0.99390    0.14750    0.19400    1.000
    C562     C        0.95370    0.63000    0.08800    1.000
    H669     H        0.96870    0.60790    0.06610    1.000
    H670     H        0.92800    0.60000    0.08080    1.000
    C563     C        0.97370    0.59500    0.13200    1.000
    H671     H        0.95370    0.57990    0.14950    1.000
    H672     H        0.98740    0.53860    0.12780    1.000
    C564     C        0.00270    0.66000    0.15960    1.000
    H673     H        0.99110    0.68900    0.18280    1.000
    H674     H        0.02630    0.62670    0.17390    1.000
    C565     C        0.01280    0.73100    0.12800    1.000
    H675     H        0.03370    0.77110    0.14360    1.000
    H676     H        0.02250    0.70090    0.10340    1.000
    C566     C        0.97700    0.78800    0.10800    1.000
    H677     H        0.98400    0.83920    0.09090    1.000
    H678     H        0.96530    0.81410    0.13280    1.000
    C567     C        0.94690    0.73000    0.07950    1.000
    H679     H        0.94740    0.74250    0.04820    1.000
    H680     H        0.92070    0.74550    0.08450    1.000
    C568     C        0.88000    0.65300    0.17200    1.000
    H681     H        0.85730    0.69060    0.15930    1.000
    H682     H        0.89790    0.65440    0.15080    1.000
    C569     C        0.90100    0.70000    0.21500    1.000
    H683     H        0.88190    0.71160    0.23360    1.000
    H684     H        0.91100    0.75910    0.20690    1.000
    C570     C        0.93500    0.64500    0.24100    1.000
    H685     H        0.95950    0.67700    0.24130    1.000
    H686     H        0.93130    0.63740    0.27170    1.000
    C571     C        0.93600    0.55100    0.21900    1.000
    H687     H        0.95490    0.51190    0.23860    1.000
    H688     H        0.94490    0.55800    0.19080    1.000
    C572     C        0.89600    0.50200    0.21000    1.000
    H689     H        0.88610    0.49710    0.23750    1.000
    H690     H        0.89900    0.44040    0.19850    1.000
    C573     C        0.86630    0.55500    0.17500    1.000
    H691     H        0.84070    0.55510    0.18400    1.000
    H692     H        0.86340    0.52560    0.14600    1.000
    C574     C        0.89270    0.47360    0.15200    1.000
    C575     C        0.85410    0.46600    0.16220    1.000
    H693     H        0.83130    0.48980    0.14410    1.000
    C576     C        0.85430    0.42470    0.19760    1.000
    H694     H        0.82990    0.41940    0.20620    1.000
    C577     C        0.88260    0.38920    0.22320    1.000
    H695     H        0.87630    0.35940    0.24810    1.000
    C578     C        0.92420    0.38610    0.22100    1.000
    H696     H        0.94430    0.35870    0.24200    1.000
    C579     C        0.92870    0.43360    0.17980    1.000
    H697     H        0.95330    0.43850    0.17150    1.000
    C580     C        0.89890    0.52620    0.11260    1.000
    H698     H        0.87570    0.54980    0.09530    1.000
    C581     C        0.92970    0.54580    0.09750    1.000
    H699     H        0.95430    0.51960    0.10920    1.000
    C582     C        0.92420    0.61000    0.06190    1.000
    H700     H        0.89940    0.63420    0.04950    1.000
    O8       O        0.95490    0.63200    0.04810    1.000
    C583     C        0.07290    0.86200    0.18990    1.000
    H701     H        0.06180    0.86590    0.15790    1.000
    H702     H        0.10130    0.87170    0.19480    1.000
    C584     C        0.05310    0.92900    0.21700    1.000
    H703     H        0.05710    0.99290    0.20870    1.000
    H704     H        0.06260    0.92150    0.24920    1.000
    C585     C        0.01010    0.90100    0.20300    1.000
    H705     H        0.00140    0.86940    0.22770    1.000
    H706     H        0.99350    0.95480    0.19490    1.000
    C586     C        0.00690    0.83600    0.16260    1.000
    H707     H        0.97930    0.82890    0.14830    1.000
    H708     H        0.02080    0.86310    0.14070    1.000
    C587     C        0.02480    0.74200    0.17800    1.000
    H709     H        0.03020    0.70660    0.15240    1.000
    H710     H        0.00750    0.70660    0.19300    1.000
    C588     C        0.06280    0.76900    0.20970    1.000
    H711     H        0.05850    0.77670    0.24030    1.000
    H712     H        0.08350    0.72390    0.20960    1.000
    C589     C        0.91590    0.88200    0.16600    1.000
    H713     H        0.93350    0.89530    0.19450    1.000
    H714     H        0.89580    0.92950    0.15990    1.000
    C590     C        0.93950    0.87700    0.12800    1.000
    H715     H        0.95690    0.93000    0.12830    1.000
    H716     H        0.95500    0.82090    0.12930    1.000
    C591     C        0.90710    0.87800    0.08600    1.000
    H717     H        0.90810    0.82270    0.06820    1.000
    H718     H        0.90970    0.93170    0.06740    1.000
    C592     C        0.86860    0.88200    0.10380    1.000
    H719     H        0.87000    0.93150    0.12600    1.000
    H720     H        0.84630    0.89470    0.07930    1.000
    C593     C        0.86340    0.79000    0.12500    1.000
    H721     H        0.86610    0.74000    0.10470    1.000
    H722     H        0.83760    0.78610    0.13340    1.000
    C594     C        0.89710    0.78800    0.16740    1.000
    H723     H        0.88670    0.78000    0.19470    1.000
    H724     H        0.91580    0.73870    0.16540    1.000
    C595     C        0.98270    0.20000    0.24470    1.000
    H725     H        0.98180    0.26470    0.25350    1.000
    H726     H        0.96070    0.18790    0.22000    1.000
    C596     C        0.02100    0.17800    0.23220    1.000
    H727     H        0.04220    0.19720    0.25650    1.000
    H728     H        0.02330    0.21360    0.20570    1.000
    C597     C        0.02720    0.08100    0.22270    1.000
    H729     H        0.05550    0.06960    0.23070    1.000
    H730     H        0.01970    0.07320    0.19020    1.000
    C598     C        0.00790    0.00800    0.24310    1.000
    H731     H        0.99390    0.96830    0.21940    1.000
    H732     H        0.02800    0.97110    0.26210    1.000
    C599     C        0.97960    0.04100    0.27050    1.000
    H733     H        0.98330    0.00410    0.29780    1.000
    H734     H        0.95300    0.02900    0.25380    1.000
    C600     C        0.98220    0.13800    0.28340    1.000
    H735     H        0.95970    0.15340    0.29690    1.000
    H736     H        0.00610    0.14750    0.30600    1.000
