# CIF file generated by openbabel 3.1.0, see https://openbabel.org
data_I
_chemical_name_common 'image0'
_cell_length_a 15.306
_cell_length_b 6.726
_cell_length_c 14.386
_cell_angle_alpha 90
_cell_angle_beta 90
_cell_angle_gamma 90
_space_group_name_H-M_alt 'P 1'
_space_group_name_Hall 'P 1'
loop_
    _symmetry_equiv_pos_as_xyz
    x,y,z
loop_
    _atom_site_label
    _atom_site_type_symbol
    _atom_site_fract_x
    _atom_site_fract_y
    _atom_site_fract_z
    _atom_site_occupancy
    O1       O        0.14790    0.58690    0.36240    1.000
    O2       O        0.20560    0.91500    0.75490    1.000
    O3       O        0.35210    0.41310    0.86240    1.000
    O4       O        0.29440    0.08500    0.25490    1.000
    O5       O        0.85210    0.08690    0.63760    1.000
    O6       O        0.79440    0.41500    0.24510    1.000
    O7       O        0.64790    0.91310    0.13760    1.000
    O8       O        0.70560    0.58500    0.74510    1.000
    O9       O        0.85210    0.41310    0.63760    1.000
    O10      O        0.79440    0.08500    0.24510    1.000
    O11      O        0.64790    0.58690    0.13760    1.000
    O12      O        0.70560    0.91500    0.74510    1.000
    O13      O        0.14790    0.91310    0.36240    1.000
    O14      O        0.20560    0.58500    0.75490    1.000
    O15      O        0.35210    0.08690    0.86240    1.000
    O16      O        0.29440    0.41500    0.25490    1.000
    Eu1      Eu       0.80154    0.75000    0.62110    1.000
    O17      O        0.84980    0.75000    0.46290    1.000
    O18      O        0.95050    0.75000    0.35250    1.000
    O19      O        0.02290    0.75000    0.83010    1.000
    O20      O        0.89160    0.75000    0.75890    1.000
    N1       N        0.96650    0.75000    0.59550    1.000
    N2       N        0.14300    0.75000    0.56310    1.000
    C1       C        0.99790    0.75000    0.50820    1.000
    C2       C        0.08570    0.75000    0.49250    1.000
    C3       C        0.10650    0.75000    0.65210    1.000
    C4       C        0.02000    0.75000    0.66690    1.000
    C5       C        0.92880    0.75000    0.43360    1.000
    C6       C        0.12910    0.75000    0.39930    1.000
    C7       C        0.17340    0.75000    0.72900    1.000
    C8       C        0.97290    0.75000    0.75990    1.000
    Eu2      Eu       0.69846    0.25000    0.12110    1.000
    O21      O        0.65020    0.25000    0.96290    1.000
    O22      O        0.54950    0.25000    0.85250    1.000
    O23      O        0.47710    0.25000    0.33010    1.000
    O24      O        0.60840    0.25000    0.25890    1.000
    N3       N        0.53350    0.25000    0.09550    1.000
    N4       N        0.35700    0.25000    0.06310    1.000
    C9       C        0.50210    0.25000    0.00820    1.000
    C10      C        0.41430    0.25000    0.99250    1.000
    C11      C        0.39350    0.25000    0.15210    1.000
    C12      C        0.48000    0.25000    0.16690    1.000
    C13      C        0.57120    0.25000    0.93360    1.000
    C14      C        0.37090    0.25000    0.89930    1.000
    C15      C        0.32660    0.25000    0.22900    1.000
    C16      C        0.52710    0.25000    0.25990    1.000
    Eu3      Eu       0.19846    0.25000    0.37890    1.000
    O25      O        0.15020    0.25000    0.53710    1.000
    O26      O        0.04950    0.25000    0.64750    1.000
    O27      O        0.97710    0.25000    0.16990    1.000
    O28      O        0.10840    0.25000    0.24110    1.000
    N5       N        0.03350    0.25000    0.40450    1.000
    N6       N        0.85700    0.25000    0.43690    1.000
    C17      C        0.00210    0.25000    0.49180    1.000
    C18      C        0.91430    0.25000    0.50750    1.000
    C19      C        0.89350    0.25000    0.34790    1.000
    C20      C        0.98000    0.25000    0.33310    1.000
    C21      C        0.07120    0.25000    0.56640    1.000
    C22      C        0.87090    0.25000    0.60070    1.000
    C23      C        0.82660    0.25000    0.27100    1.000
    C24      C        0.02710    0.25000    0.24010    1.000
    Eu4      Eu       0.30154    0.75000    0.87890    1.000
    O29      O        0.34980    0.75000    0.03710    1.000
    O30      O        0.45050    0.75000    0.14750    1.000
    O31      O        0.52290    0.75000    0.66990    1.000
    O32      O        0.39160    0.75000    0.74110    1.000
    N7       N        0.46650    0.75000    0.90450    1.000
    N8       N        0.64300    0.75000    0.93690    1.000
    C25      C        0.49790    0.75000    0.99180    1.000
    C26      C        0.58570    0.75000    0.00750    1.000
    C27      C        0.60650    0.75000    0.84790    1.000
    C28      C        0.52000    0.75000    0.83310    1.000
    C29      C        0.42880    0.75000    0.06640    1.000
    C30      C        0.62910    0.75000    0.10070    1.000
    C31      C        0.67340    0.75000    0.77100    1.000
    C32      C        0.47290    0.75000    0.74010    1.000
    Na1      Na       0.26390    0.25000    0.68900    1.000
    Na2      Na       0.23610    0.75000    0.18900    1.000
    Na3      Na       0.73610    0.75000    0.31100    1.000
    Na4      Na       0.76390    0.25000    0.81100    1.000
