# CIF file generated by openbabel 3.1.0, see https://openbabel.org
data_I
_chemical_name_common 'image0'
_cell_length_a 7.025
_cell_length_b 9.47
_cell_length_c 16.57
_cell_angle_alpha 90
_cell_angle_beta 96.03
_cell_angle_gamma 90
_space_group_name_H-M_alt 'P 1'
_space_group_name_Hall 'P 1'
loop_
    _symmetry_equiv_pos_as_xyz
    x,y,z
loop_
    _atom_site_label
    _atom_site_type_symbol
    _atom_site_fract_x
    _atom_site_fract_y
    _atom_site_fract_z
    _atom_site_occupancy
    P1       P        0.56130    0.19880    0.51130    1.000
    P2       P        0.50840    0.29490    0.77580    1.000
    O1       O        0.56320    0.15410    0.60110    1.000
    O2       O        0.52060    0.13550    0.76830    1.000
    O3       O        0.56010    0.36210    0.51250    1.000
    O4       O        0.34630    0.34270    0.82330    1.000
    O5       O        0.73740    0.14540    0.47630    1.000
    O6       O        0.69890    0.35040    0.81130    1.000
    O7       O        0.37890    0.14770    0.46390    1.000
    O8       O        0.46410    0.35330    0.68710    1.000
    P3       P        0.06130    0.69880    0.01130    1.000
    P4       P        0.00840    0.79490    0.27580    1.000
    O9       O        0.06320    0.65410    0.10110    1.000
    O10      O        0.02060    0.63550    0.26830    1.000
    O11      O        0.06010    0.86210    0.01250    1.000
    O12      O        0.84630    0.84270    0.32330    1.000
    O13      O        0.23740    0.64540    0.97630    1.000
    O14      O        0.19890    0.85040    0.31130    1.000
    O15      O        0.87890    0.64770    0.96390    1.000
    O16      O        0.96410    0.85330    0.18710    1.000
    P5       P        0.56130    0.80120    0.51130    1.000
    P6       P        0.50840    0.70510    0.77580    1.000
    O17      O        0.56320    0.84590    0.60110    1.000
    O18      O        0.52060    0.86450    0.76830    1.000
    O19      O        0.56010    0.63790    0.51250    1.000
    O20      O        0.34630    0.65730    0.82330    1.000
    O21      O        0.73740    0.85460    0.47630    1.000
    O22      O        0.69890    0.64960    0.81130    1.000
    O23      O        0.37890    0.85230    0.46390    1.000
    O24      O        0.46410    0.64670    0.68710    1.000
    P7       P        0.06130    0.30120    0.01130    1.000
    P8       P        0.00840    0.20510    0.27580    1.000
    O25      O        0.06320    0.34590    0.10110    1.000
    O26      O        0.02060    0.36450    0.26830    1.000
    O27      O        0.06010    0.13790    0.01250    1.000
    O28      O        0.84630    0.15730    0.32330    1.000
    O29      O        0.23740    0.35460    0.97630    1.000
    O30      O        0.19890    0.14960    0.31130    1.000
    O31      O        0.87890    0.35230    0.96390    1.000
    O32      O        0.96410    0.14670    0.18710    1.000
    V1       V        0.58740    0.00000    0.68320    1.000
    V2       V        0.08740    0.50000    0.18320    1.000
    V3       V        0.59670    0.50000    0.42540    1.000
    V4       V        0.32850    0.50000    0.90560    1.000
    V5       V        0.82240    0.50000    0.88340    1.000
    O33      O        0.55510    0.50000    0.93600    1.000
    O34      O        0.03340    0.50000    0.84910    1.000
    V6       V        0.09670    0.00000    0.92540    1.000
    V7       V        0.82850    0.00000    0.40560    1.000
    V8       V        0.32240    0.00000    0.38340    1.000
    O35      O        0.05510    0.00000    0.43600    1.000
    O36      O        0.53340    0.00000    0.34910    1.000
