# CIF file generated by openbabel 3.1.0, see https://openbabel.org
data_I
_chemical_name_common 'image0'
_cell_length_a 20.1616
_cell_length_b 20.1616
_cell_length_c 20.1616
_cell_angle_alpha 90
_cell_angle_beta 90
_cell_angle_gamma 90
_space_group_name_H-M_alt 'P 1'
_space_group_name_Hall 'P 1'
loop_
    _symmetry_equiv_pos_as_xyz
    x,y,z
loop_
    _atom_site_label
    _atom_site_type_symbol
    _atom_site_fract_x
    _atom_site_fract_y
    _atom_site_fract_z
    _atom_site_occupancy
    Zn1      Zn       0.30416    0.80887    0.19746    1.000
    Zn2      Zn       0.30281    0.80382    0.80799    1.000
    C1       C        0.20980    0.70720    0.96480    1.000
    H1       H        0.18410    0.67120    0.98100    1.000
    C2       C        0.24030    0.75290    0.00290    1.000
    C3       C        0.23610    0.76350    0.07490    1.000
    C4       C        0.29230    0.77770    0.96740    1.000
    H2       H        0.33390    0.79400    0.98230    1.000
    C5       C        0.22890    0.94700    0.70910    1.000
    H3       H        0.21330    0.95050    0.66480    1.000
    C6       C        0.24800    0.00210    0.73640    1.000
    C7       C        0.22080    0.07580    0.73130    1.000
    N1       N        0.26670    0.77250    0.90160    1.000
    N2       N        0.22170    0.72070    0.89780    1.000
    N3       N        0.22820    0.89840    0.72980    1.000
    N4       N        0.27840    0.89380    0.78000    1.000
    O1       O        0.27550    0.78970    0.10710    1.000
    O2       O        0.20420    0.72650    0.10740    1.000
    O3       O        0.20820    0.10370    0.70190    1.000
    O4       O        0.21870    0.11320    0.79050    1.000
    Zn3      Zn       0.19584    0.19113    0.69746    1.000
    Zn4      Zn       0.19719    0.19618    0.30799    1.000
    C8       C        0.29020    0.29280    0.46480    1.000
    H4       H        0.31590    0.32880    0.48100    1.000
    C9       C        0.25970    0.24710    0.50290    1.000
    C10      C        0.26390    0.23650    0.57490    1.000
    C11      C        0.20770    0.22230    0.46740    1.000
    H5       H        0.16610    0.20600    0.48230    1.000
    C12      C        0.27110    0.05300    0.20910    1.000
    H6       H        0.28670    0.04950    0.16480    1.000
    C13      C        0.25200    0.99790    0.23640    1.000
    C14      C        0.27920    0.92420    0.23130    1.000
    N5       N        0.23330    0.22750    0.40160    1.000
    N6       N        0.27830    0.27930    0.39780    1.000
    N7       N        0.27180    0.10160    0.22980    1.000
    N8       N        0.22160    0.10620    0.28000    1.000
    O5       O        0.22450    0.21030    0.60710    1.000
    O6       O        0.29580    0.27350    0.60740    1.000
    O7       O        0.29180    0.89630    0.20190    1.000
    O8       O        0.28130    0.88680    0.29050    1.000
    Zn5      Zn       0.69584    0.30887    0.30254    1.000
    Zn6      Zn       0.69719    0.30382    0.69201    1.000
    C15      C        0.79020    0.20720    0.53520    1.000
    H7       H        0.81590    0.17120    0.51900    1.000
    C16      C        0.75970    0.25290    0.49710    1.000
    C17      C        0.76390    0.26350    0.42510    1.000
    C18      C        0.70770    0.27770    0.53260    1.000
    H8       H        0.66610    0.29400    0.51770    1.000
    C19      C        0.77110    0.44700    0.79090    1.000
    H9       H        0.78670    0.45050    0.83520    1.000
    C20      C        0.75200    0.50210    0.76360    1.000
    C21      C        0.77920    0.57580    0.76870    1.000
    N9       N        0.73330    0.27250    0.59840    1.000
    N10      N        0.77830    0.22070    0.60220    1.000
    N11      N        0.77180    0.39840    0.77020    1.000
    N12      N        0.72160    0.39380    0.72000    1.000
    O9       O        0.72450    0.28970    0.39290    1.000
    O10      O        0.79580    0.22650    0.39260    1.000
    O11      O        0.79180    0.60370    0.79810    1.000
    O12      O        0.78130    0.61320    0.70950    1.000
    Zn7      Zn       0.80416    0.69113    0.80254    1.000
    Zn8      Zn       0.80281    0.69618    0.19201    1.000
    C22      C        0.70980    0.79280    0.03520    1.000
    H10      H        0.68410    0.82880    0.01900    1.000
    C23      C        0.74030    0.74710    0.99710    1.000
    C24      C        0.73610    0.73650    0.92510    1.000
    C25      C        0.79230    0.72230    0.03260    1.000
    H11      H        0.83390    0.70600    0.01770    1.000
    C26      C        0.72890    0.55300    0.29090    1.000
    H12      H        0.71330    0.54950    0.33520    1.000
    C27      C        0.74800    0.49790    0.26360    1.000
    C28      C        0.72080    0.42420    0.26870    1.000
    N13      N        0.76670    0.72750    0.09840    1.000
    N14      N        0.72170    0.77930    0.10220    1.000
    N15      N        0.72820    0.60160    0.27020    1.000
    N16      N        0.77840    0.60620    0.22000    1.000
    O13      O        0.77550    0.71030    0.89290    1.000
    O14      O        0.70420    0.77350    0.89260    1.000
    O15      O        0.70820    0.39630    0.29810    1.000
    O16      O        0.71870    0.38680    0.20950    1.000
    Zn9      Zn       0.19746    0.30416    0.80887    1.000
    Zn10     Zn       0.80799    0.30281    0.80382    1.000
    C29      C        0.96480    0.20980    0.70720    1.000
    H13      H        0.98100    0.18410    0.67120    1.000
    C30      C        0.00290    0.24030    0.75290    1.000
    C31      C        0.07490    0.23610    0.76350    1.000
    C32      C        0.96740    0.29230    0.77770    1.000
    H14      H        0.98230    0.33390    0.79400    1.000
    C33      C        0.70910    0.22890    0.94700    1.000
    H15      H        0.66480    0.21330    0.95050    1.000
    C34      C        0.73640    0.24800    0.00210    1.000
    C35      C        0.73130    0.22080    0.07580    1.000
    N17      N        0.90160    0.26670    0.77250    1.000
    N18      N        0.89780    0.22170    0.72070    1.000
    N19      N        0.72980    0.22820    0.89840    1.000
    N20      N        0.78000    0.27840    0.89380    1.000
    O17      O        0.10710    0.27550    0.78970    1.000
    O18      O        0.10740    0.20420    0.72650    1.000
    O19      O        0.70190    0.20820    0.10370    1.000
    O20      O        0.79050    0.21870    0.11320    1.000
    Zn11     Zn       0.69746    0.19584    0.19113    1.000
    Zn12     Zn       0.30799    0.19719    0.19618    1.000
    C36      C        0.46480    0.29020    0.29280    1.000
    H16      H        0.48100    0.31590    0.32880    1.000
    C37      C        0.50290    0.25970    0.24710    1.000
    C38      C        0.57490    0.26390    0.23650    1.000
    C39      C        0.46740    0.20770    0.22230    1.000
    H17      H        0.48230    0.16610    0.20600    1.000
    C40      C        0.20910    0.27110    0.05300    1.000
    H18      H        0.16480    0.28670    0.04950    1.000
    C41      C        0.23640    0.25200    0.99790    1.000
    C42      C        0.23130    0.27920    0.92420    1.000
    N21      N        0.40160    0.23330    0.22750    1.000
    N22      N        0.39780    0.27830    0.27930    1.000
    N23      N        0.22980    0.27180    0.10160    1.000
    N24      N        0.28000    0.22160    0.10620    1.000
    O21      O        0.60710    0.22450    0.21030    1.000
    O22      O        0.60740    0.29580    0.27350    1.000
    O23      O        0.20190    0.29180    0.89630    1.000
    O24      O        0.29050    0.28130    0.88680    1.000
    Zn13     Zn       0.30254    0.69584    0.30887    1.000
    Zn14     Zn       0.69201    0.69719    0.30382    1.000
    C43      C        0.53520    0.79020    0.20720    1.000
    H19      H        0.51900    0.81590    0.17120    1.000
    C44      C        0.49710    0.75970    0.25290    1.000
    C45      C        0.42510    0.76390    0.26350    1.000
    C46      C        0.53260    0.70770    0.27770    1.000
    H20      H        0.51770    0.66610    0.29400    1.000
    C47      C        0.79090    0.77110    0.44700    1.000
    H21      H        0.83520    0.78670    0.45050    1.000
    C48      C        0.76360    0.75200    0.50210    1.000
    C49      C        0.76870    0.77920    0.57580    1.000
    N25      N        0.59840    0.73330    0.27250    1.000
    N26      N        0.60220    0.77830    0.22070    1.000
    N27      N        0.77020    0.77180    0.39840    1.000
    N28      N        0.72000    0.72160    0.39380    1.000
    O25      O        0.39290    0.72450    0.28970    1.000
    O26      O        0.39260    0.79580    0.22650    1.000
    O27      O        0.79810    0.79180    0.60370    1.000
    O28      O        0.70950    0.78130    0.61320    1.000
    Zn15     Zn       0.80254    0.80416    0.69113    1.000
    Zn16     Zn       0.19201    0.80281    0.69618    1.000
    C50      C        0.03520    0.70980    0.79280    1.000
    H22      H        0.01900    0.68410    0.82880    1.000
    C51      C        0.99710    0.74030    0.74710    1.000
    C52      C        0.92510    0.73610    0.73650    1.000
    C53      C        0.03260    0.79230    0.72230    1.000
    H23      H        0.01770    0.83390    0.70600    1.000
    C54      C        0.29090    0.72890    0.55300    1.000
    H24      H        0.33520    0.71330    0.54950    1.000
    C55      C        0.26360    0.74800    0.49790    1.000
    C56      C        0.26870    0.72080    0.42420    1.000
    N29      N        0.09840    0.76670    0.72750    1.000
    N30      N        0.10220    0.72170    0.77930    1.000
    N31      N        0.27020    0.72820    0.60160    1.000
    N32      N        0.22000    0.77840    0.60620    1.000
    O29      O        0.89290    0.77550    0.71030    1.000
    O30      O        0.89260    0.70420    0.77350    1.000
    O31      O        0.29810    0.70820    0.39630    1.000
    O32      O        0.20950    0.71870    0.38680    1.000
    Zn17     Zn       0.80887    0.19746    0.30416    1.000
    Zn18     Zn       0.80382    0.80799    0.30281    1.000
    C57      C        0.70720    0.96480    0.20980    1.000
    H25      H        0.67120    0.98100    0.18410    1.000
    C58      C        0.75290    0.00290    0.24030    1.000
    C59      C        0.76350    0.07490    0.23610    1.000
    C60      C        0.77770    0.96740    0.29230    1.000
    H26      H        0.79400    0.98230    0.33390    1.000
    C61      C        0.94700    0.70910    0.22890    1.000
    H27      H        0.95050    0.66480    0.21330    1.000
    C62      C        0.00210    0.73640    0.24800    1.000
    C63      C        0.07580    0.73130    0.22080    1.000
    N33      N        0.77250    0.90160    0.26670    1.000
    N34      N        0.72070    0.89780    0.22170    1.000
    N35      N        0.89840    0.72980    0.22820    1.000
    N36      N        0.89380    0.78000    0.27840    1.000
    O33      O        0.78970    0.10710    0.27550    1.000
    O34      O        0.72650    0.10740    0.20420    1.000
    O35      O        0.10370    0.70190    0.20820    1.000
    O36      O        0.11320    0.79050    0.21870    1.000
    Zn19     Zn       0.19113    0.69746    0.19584    1.000
    Zn20     Zn       0.19618    0.30799    0.19719    1.000
    C64      C        0.29280    0.46480    0.29020    1.000
    H28      H        0.32880    0.48100    0.31590    1.000
    C65      C        0.24710    0.50290    0.25970    1.000
    C66      C        0.23650    0.57490    0.26390    1.000
    C67      C        0.22230    0.46740    0.20770    1.000
    H29      H        0.20600    0.48230    0.16610    1.000
    C68      C        0.05300    0.20910    0.27110    1.000
    H30      H        0.04950    0.16480    0.28670    1.000
    C69      C        0.99790    0.23640    0.25200    1.000
    C70      C        0.92420    0.23130    0.27920    1.000
    N37      N        0.22750    0.40160    0.23330    1.000
    N38      N        0.27930    0.39780    0.27830    1.000
    N39      N        0.10160    0.22980    0.27180    1.000
    N40      N        0.10620    0.28000    0.22160    1.000
    O37      O        0.21030    0.60710    0.22450    1.000
    O38      O        0.27350    0.60740    0.29580    1.000
    O39      O        0.89630    0.20190    0.29180    1.000
    O40      O        0.88680    0.29050    0.28130    1.000
    Zn21     Zn       0.30887    0.30254    0.69584    1.000
    Zn22     Zn       0.30382    0.69201    0.69719    1.000
    C71      C        0.20720    0.53520    0.79020    1.000
    H31      H        0.17120    0.51900    0.81590    1.000
    C72      C        0.25290    0.49710    0.75970    1.000
    C73      C        0.26350    0.42510    0.76390    1.000
    C74      C        0.27770    0.53260    0.70770    1.000
    H32      H        0.29400    0.51770    0.66610    1.000
    C75      C        0.44700    0.79090    0.77110    1.000
    H33      H        0.45050    0.83520    0.78670    1.000
    C76      C        0.50210    0.76360    0.75200    1.000
    C77      C        0.57580    0.76870    0.77920    1.000
    N41      N        0.27250    0.59840    0.73330    1.000
    N42      N        0.22070    0.60220    0.77830    1.000
    N43      N        0.39840    0.77020    0.77180    1.000
    N44      N        0.39380    0.72000    0.72160    1.000
    O41      O        0.28970    0.39290    0.72450    1.000
    O42      O        0.22650    0.39260    0.79580    1.000
    O43      O        0.60370    0.79810    0.79180    1.000
    O44      O        0.61320    0.70950    0.78130    1.000
    Zn23     Zn       0.69113    0.80254    0.80416    1.000
    Zn24     Zn       0.69618    0.19201    0.80281    1.000
    C78      C        0.79280    0.03520    0.70980    1.000
    H34      H        0.82880    0.01900    0.68410    1.000
    C79      C        0.74710    0.99710    0.74030    1.000
    C80      C        0.73650    0.92510    0.73610    1.000
    C81      C        0.72230    0.03260    0.79230    1.000
    H35      H        0.70600    0.01770    0.83390    1.000
    C82      C        0.55300    0.29090    0.72890    1.000
    H36      H        0.54950    0.33520    0.71330    1.000
    C83      C        0.49790    0.26360    0.74800    1.000
    C84      C        0.42420    0.26870    0.72080    1.000
    N45      N        0.72750    0.09840    0.76670    1.000
    N46      N        0.77930    0.10220    0.72170    1.000
    N47      N        0.60160    0.27020    0.72820    1.000
    N48      N        0.60620    0.22000    0.77840    1.000
    O45      O        0.71030    0.89290    0.77550    1.000
    O46      O        0.77350    0.89260    0.70420    1.000
    O47      O        0.39630    0.29810    0.70820    1.000
    O48      O        0.38680    0.20950    0.71870    1.000
    Zn25     Zn       0.18975    0.68975    0.81025    1.000
    O49      O        0.24700    0.74700    0.75300    1.000
    Zn26     Zn       0.31025    0.31025    0.31025    1.000
    O50      O        0.25300    0.25300    0.25300    1.000
    Zn27     Zn       0.81025    0.18975    0.68975    1.000
    O51      O        0.75300    0.24700    0.74700    1.000
    Zn28     Zn       0.68975    0.81025    0.18975    1.000
    O52      O        0.74700    0.75300    0.24700    1.000
    O53      O        0.24500    0.75500    0.25500    1.000
    O54      O        0.25500    0.24500    0.75500    1.000
    O55      O        0.75500    0.25500    0.24500    1.000
    O56      O        0.74500    0.74500    0.74500    1.000
