# CIF file generated by openbabel 3.1.0, see https://openbabel.org
data_I
_chemical_name_common 'ja5b00450_si_006_clean'
_cell_length_a 21.1634
_cell_length_b 29.3518
_cell_length_c 29.3518
_cell_angle_alpha 120
_cell_angle_beta 90
_cell_angle_gamma 90
_space_group_name_H-M_alt 'P 1'
_space_group_name_Hall 'P 1'
loop_
    _symmetry_equiv_pos_as_xyz
    x,y,z
loop_
    _atom_site_label
    _atom_site_type_symbol
    _atom_site_fract_x
    _atom_site_fract_y
    _atom_site_fract_z
    _atom_site_occupancy
    Y1       Y        0.50000    0.49080    0.74540    1.000
    Y2       Y        0.40870    0.37674    0.75348    1.000
    Y3       Y        0.40870    0.75348    0.37674    1.000
    Y4       Y        0.90878    0.28977    0.57954    1.000
    Y5       Y        0.59130    0.37674    0.75348    1.000
    Y6       Y        0.50000    0.07884    0.92116    1.000
    Y7       Y        0.90878    0.71023    0.28978    1.000
    Y8       Y        0.40870    0.24652    0.62326    1.000
    Y9       Y        0.59130    0.75348    0.37674    1.000
    Y10      Y        0.00000    0.41204    0.82408    1.000
    Y11      Y        0.50000    0.74540    0.25460    1.000
    Y12      Y        0.40870    0.37674    0.62326    1.000
    Y13      Y        0.74210    0.66667    0.33334    1.000
    Y14      Y        0.25790    0.33333    0.66666    1.000
    Y15      Y        0.00000    0.41204    0.58796    1.000
    Y16      Y        0.00000    0.58796    0.17592    1.000
    Y17      Y        0.00000    0.82408    0.41204    1.000
    Y18      Y        0.00000    0.17592    0.58796    1.000
    Y19      Y        0.40870    0.62326    0.37674    1.000
    Y20      Y        0.50000    0.15768    0.07884    1.000
    Y21      Y        0.90878    0.57955    0.28978    1.000
    Y22      Y        0.90878    0.28977    0.71022    1.000
    Y23      Y        0.09122    0.28977    0.57954    1.000
    Y24      Y        0.50000    0.25460    0.74540    1.000
    Y25      Y        0.09122    0.71023    0.42046    1.000
    Y26      Y        0.90878    0.42045    0.71022    1.000
    Y27      Y        0.50000    0.50920    0.25460    1.000
    Y28      Y        0.50000    0.25460    0.50920    1.000
    Y29      Y        0.74210    0.33333    0.66666    1.000
    Y30      Y        0.50000    0.92116    0.84232    1.000
    Y31      Y        0.59130    0.62326    0.37674    1.000
    Y32      Y        0.40870    0.62326    0.24652    1.000
    Y33      Y        0.25790    0.66667    0.33334    1.000
    Y34      Y        0.50000    0.92116    0.07884    1.000
    Y35      Y        0.00000    0.58796    0.41204    1.000
    Y36      Y        0.09122    0.71023    0.28978    1.000
    Y37      Y        0.50000    0.84232    0.92116    1.000
    Y38      Y        0.59130    0.37674    0.62326    1.000
    Y39      Y        0.50000    0.07884    0.15768    1.000
    Y40      Y        0.50000    0.74540    0.49080    1.000
    Y41      Y        0.09122    0.42045    0.71022    1.000
    Y42      Y        0.90878    0.71023    0.42046    1.000
    Y43      Y        0.59130    0.62326    0.24652    1.000
    Y44      Y        0.59130    0.24652    0.62326    1.000
    Y45      Y        0.09122    0.28977    0.71022    1.000
    Y46      Y        0.09122    0.57955    0.28978    1.000
    H1       H        0.76950    0.27600    0.05370    1.000
    H2       H        0.19950    0.73040    0.17150    1.000
    H3       H        0.64860    0.32710    0.03690    1.000
    H4       H        0.39210    0.72980    0.77770    1.000
    H5       H        0.24670    0.89290    0.25440    1.000
    H6       H        0.75330    0.74560    0.10710    1.000
    H7       H        0.22160    0.34790    0.24050    1.000
    H8       H        0.20720    0.20870    0.25830    1.000
    H9       H        0.71420    0.63700    0.64870    1.000
    H10      H        0.77840    0.10740    0.34790    1.000
    H11      H        0.08160    0.44210    0.05640    1.000
    H12      H        0.71420    0.01170    0.36300    1.000
    H13      H        0.10300    0.39370    0.94190    1.000
    H14      H        0.26710    0.42270    0.98240    1.000
    H15      H        0.60790    0.27020    0.22230    1.000
    H16      H        0.35140    0.67290    0.70980    1.000
    H17      H        0.08160    0.94360    0.38570    1.000
    H18      H        0.64860    0.32710    0.29020    1.000
    H19      H        0.39820    0.88520    0.27710    1.000
    H20      H        0.71420    0.36300    0.01170    1.000
    H21      H        0.29940    0.84000    0.78680    1.000
    H22      H        0.35140    0.32710    0.03690    1.000
    H23      H        0.89700    0.39370    0.45180    1.000
    H24      H        0.79280    0.25830    0.04960    1.000
    H25      H        0.60790    0.77770    0.72980    1.000
    H26      H        0.17630    0.74170    0.57160    1.000
    H27      H        0.31390    0.09550    0.59040    1.000
    H28      H        0.82370    0.25830    0.42840    1.000
    H29      H        0.65440    0.70510    0.04450    1.000
    H30      H        0.68170    0.04910    0.33060    1.000
    H31      H        0.70060    0.84000    0.05320    1.000
    H32      H        0.79280    0.20870    0.95040    1.000
    H33      H        0.19950    0.55890    0.73040    1.000
    H34      H        0.91840    0.44210    0.38570    1.000
    H35      H        0.31830    0.95090    0.28150    1.000
    H36      H        0.58970    0.72100    0.77450    1.000
    H37      H        0.71420    0.01170    0.64870    1.000
    H38      H        0.60790    0.72980    0.95210    1.000
    H39      H        0.41030    0.77450    0.05350    1.000
    H40      H        0.17630    0.42840    0.17010    1.000
    H41      H        0.60790    0.04790    0.77770    1.000
    H42      H        0.76950    0.27600    0.22230    1.000
    H43      H        0.41030    0.72100    0.77450    1.000
    H44      H        0.10300    0.94190    0.54820    1.000
    H45      H        0.22160    0.65210    0.75950    1.000
    H46      H        0.82370    0.82990    0.57160    1.000
    H47      H        0.34560    0.04450    0.70510    1.000
    H48      H        0.39820    0.27710    0.39190    1.000
    H49      H        0.89700    0.05810    0.45180    1.000
    H50      H        0.26710    0.44030    0.42270    1.000
    H51      H        0.29940    0.78680    0.84000    1.000
    H52      H        0.60180    0.39190    0.11480    1.000
    H53      H        0.39820    0.60810    0.88520    1.000
    H54      H        0.70060    0.94680    0.78680    1.000
    H55      H        0.70060    0.78680    0.94680    1.000
    H56      H        0.60180    0.60810    0.72290    1.000
    H57      H        0.22160    0.89260    0.65210    1.000
    H58      H        0.39210    0.77770    0.72980    1.000
    H59      H        0.64860    0.03690    0.70980    1.000
    H60      H        0.80050    0.17150    0.44110    1.000
    H61      H        0.22160    0.89260    0.24050    1.000
    H62      H        0.31390    0.90450    0.40960    1.000
    H63      H        0.70060    0.05320    0.21320    1.000
    H64      H        0.77840    0.24050    0.34790    1.000
    H65      H        0.31390    0.50510    0.09550    1.000
    H66      H        0.31830    0.95090    0.66940    1.000
    H67      H        0.68610    0.50510    0.40960    1.000
    H68      H        0.89700    0.05810    0.60630    1.000
    H69      H        0.35140    0.67290    0.96310    1.000
    H70      H        0.23050    0.94630    0.72400    1.000
    H71      H        0.77840    0.24050    0.89260    1.000
    H72      H        0.28580    0.01170    0.36300    1.000
    H73      H        0.10300    0.60630    0.54820    1.000
    H74      H        0.79280    0.20870    0.25830    1.000
    H75      H        0.19950    0.82850    0.55890    1.000
    H76      H        0.60180    0.11480    0.39190    1.000
    H77      H        0.41030    0.27900    0.22550    1.000
    H78      H        0.08160    0.05640    0.61430    1.000
    H79      H        0.29940    0.21320    0.05320    1.000
    H80      H        0.23050    0.77770    0.72400    1.000
    H81      H        0.08160    0.05640    0.44210    1.000
    H82      H        0.28580    0.64870    0.01170    1.000
    H83      H        0.70060    0.94680    0.16000    1.000
    H84      H        0.79280    0.04960    0.79130    1.000
    H85      H        0.17630    0.25830    0.82990    1.000
    H86      H        0.17630    0.82990    0.57160    1.000
    H87      H        0.41030    0.22550    0.94650    1.000
    H88      H        0.68610    0.49490    0.59040    1.000
    H89      H        0.10300    0.54820    0.94190    1.000
    H90      H        0.82370    0.74170    0.57160    1.000
    H91      H        0.24670    0.74560    0.63850    1.000
    H92      H        0.35140    0.29020    0.32710    1.000
    H93      H        0.41030    0.77450    0.72100    1.000
    H94      H        0.68170    0.28150    0.95090    1.000
    H95      H        0.82370    0.42840    0.17010    1.000
    H96      H        0.39210    0.22230    0.95210    1.000
    H97      H        0.64860    0.67290    0.96310    1.000
    H98      H        0.58970    0.27900    0.05350    1.000
    H99      H        0.76950    0.05370    0.27600    1.000
    H100     H        0.34560    0.95550    0.29490    1.000
    H101     H        0.27770    0.80380    0.85000    1.000
    H102     H        0.72230    0.04620    0.85000    1.000
    H103     H        0.10300    0.45180    0.39370    1.000
    H104     H        0.23050    0.72400    0.77770    1.000
    H105     H        0.17630    0.25830    0.42840    1.000
    H106     H        0.70060    0.16000    0.21320    1.000
    H107     H        0.75330    0.74560    0.63850    1.000
    H108     H        0.64860    0.29020    0.96310    1.000
    H109     H        0.41030    0.27900    0.05350    1.000
    H110     H        0.29940    0.16000    0.21320    1.000
    H111     H        0.60180    0.88520    0.27710    1.000
    H112     H        0.20720    0.79130    0.04960    1.000
    H113     H        0.17630    0.57160    0.82990    1.000
    H114     H        0.31390    0.50510    0.40960    1.000
    H115     H        0.77840    0.34790    0.10740    1.000
    H116     H        0.29940    0.84000    0.05320    1.000
    H117     H        0.60180    0.27710    0.39190    1.000
    H118     H        0.34560    0.04450    0.33940    1.000
    H119     H        0.71420    0.64870    0.01170    1.000
    H120     H        0.35140    0.29020    0.96310    1.000
    H121     H        0.80050    0.17150    0.73040    1.000
    H122     H        0.58970    0.05350    0.77450    1.000
    H123     H        0.39820    0.60810    0.72290    1.000
    H124     H        0.08160    0.55790    0.61430    1.000
    H125     H        0.64860    0.70980    0.67290    1.000
    H126     H        0.70060    0.16000    0.94680    1.000
    H127     H        0.68610    0.49490    0.90450    1.000
    H128     H        0.29940    0.05320    0.84000    1.000
    H129     H        0.10300    0.60630    0.05810    1.000
    H130     H        0.89700    0.94190    0.54820    1.000
    H131     H        0.89700    0.45180    0.39370    1.000
    H132     H        0.89700    0.45180    0.05810    1.000
    H133     H        0.68170    0.33060    0.04910    1.000
    H134     H        0.23050    0.22230    0.27600    1.000
    H135     H        0.76950    0.77770    0.72400    1.000
    H136     H        0.28580    0.63700    0.98830    1.000
    H137     H        0.72230    0.95380    0.80380    1.000
    H138     H        0.72230    0.15000    0.19620    1.000
    H139     H        0.89700    0.94190    0.39370    1.000
    H140     H        0.31830    0.71850    0.04910    1.000
    H141     H        0.68170    0.95090    0.28150    1.000
    H142     H        0.28580    0.64870    0.63700    1.000
    H143     H        0.39210    0.72980    0.95210    1.000
    H144     H        0.60180    0.11480    0.72290    1.000
    H145     H        0.26710    0.57730    0.55970    1.000
    H146     H        0.82370    0.25830    0.82990    1.000
    H147     H        0.19950    0.55890    0.82850    1.000
    H148     H        0.10300    0.54820    0.60630    1.000
    H149     H        0.75330    0.25440    0.36150    1.000
    H150     H        0.26710    0.98240    0.55970    1.000
    H151     H        0.39210    0.95210    0.22230    1.000
    H152     H        0.91840    0.55790    0.94360    1.000
    H153     H        0.29940    0.05320    0.21320    1.000
    H154     H        0.10300    0.39370    0.45180    1.000
    H155     H        0.65440    0.66060    0.95550    1.000
    H156     H        0.20720    0.04960    0.25830    1.000
    H157     H        0.24670    0.63850    0.89290    1.000
    H158     H        0.10300    0.05810    0.45180    1.000
    H159     H        0.60790    0.95210    0.72980    1.000
    H160     H        0.91840    0.61430    0.55790    1.000
    H161     H        0.24670    0.74560    0.10710    1.000
    H162     H        0.24670    0.10710    0.74560    1.000
    H163     H        0.23050    0.94630    0.22230    1.000
    H164     H        0.60180    0.39190    0.27710    1.000
    H165     H        0.89700    0.39370    0.94190    1.000
    H166     H        0.60790    0.22230    0.95210    1.000
    H167     H        0.79280    0.95040    0.20870    1.000
    H168     H        0.82370    0.57160    0.82990    1.000
    H169     H        0.64860    0.29020    0.32710    1.000
    H170     H        0.71420    0.63700    0.98830    1.000
    H171     H        0.68610    0.50510    0.09550    1.000
    H172     H        0.29940    0.94680    0.16000    1.000
    H173     H        0.23050    0.05370    0.77770    1.000
    H174     H        0.77840    0.75950    0.65210    1.000
    H175     H        0.26710    0.42270    0.44030    1.000
    H176     H        0.29940    0.94680    0.78680    1.000
    H177     H        0.60790    0.72980    0.77770    1.000
    H178     H        0.26710    0.57730    0.01760    1.000
    H179     H        0.08160    0.61430    0.55790    1.000
    H180     H        0.77840    0.89260    0.65210    1.000
    H181     H        0.75330    0.89290    0.25440    1.000
    H182     H        0.22160    0.24050    0.89260    1.000
    H183     H        0.20720    0.95040    0.74170    1.000
    H184     H        0.79280    0.74170    0.95040    1.000
    H185     H        0.23050    0.72400    0.94630    1.000
    H186     H        0.24670    0.25440    0.36150    1.000
    H187     H        0.75330    0.36150    0.25440    1.000
    H188     H        0.22160    0.24050    0.34790    1.000
    H189     H        0.68610    0.40960    0.50510    1.000
    H190     H        0.39820    0.11480    0.39190    1.000
    H191     H        0.58970    0.77450    0.05350    1.000
    H192     H        0.73290    0.01760    0.44030    1.000
    H193     H        0.27770    0.95380    0.80380    1.000
    H194     H        0.64860    0.96310    0.29020    1.000
    H195     H        0.23050    0.05370    0.27600    1.000
    H196     H        0.22160    0.75950    0.10740    1.000
    H197     H        0.31390    0.49490    0.90450    1.000
    H198     H        0.08160    0.61430    0.05640    1.000
    H199     H        0.31390    0.49490    0.59040    1.000
    H200     H        0.31390    0.40960    0.50510    1.000
    H201     H        0.17630    0.74170    0.17010    1.000
    H202     H        0.80050    0.55890    0.73040    1.000
    H203     H        0.31390    0.40960    0.90450    1.000
    H204     H        0.79280    0.25830    0.20870    1.000
    H205     H        0.68170    0.33060    0.28150    1.000
    H206     H        0.60180    0.72290    0.11480    1.000
    H207     H        0.27770    0.15000    0.95380    1.000
    H208     H        0.73290    0.57730    0.01760    1.000
    H209     H        0.29940    0.16000    0.94680    1.000
    H210     H        0.76950    0.94630    0.22230    1.000
    H211     H        0.91840    0.44210    0.05640    1.000
    H212     H        0.65440    0.66060    0.70510    1.000
    H213     H        0.31830    0.66940    0.71850    1.000
    H214     H        0.22160    0.75950    0.65210    1.000
    H215     H        0.39820    0.39190    0.27710    1.000
    H216     H        0.24670    0.25440    0.89290    1.000
    H217     H        0.10300    0.94190    0.39370    1.000
    H218     H        0.31830    0.33060    0.04910    1.000
    H219     H        0.41030    0.94650    0.72100    1.000
    H220     H        0.26710    0.98240    0.42270    1.000
    H221     H        0.39210    0.95210    0.72980    1.000
    H222     H        0.68610    0.40960    0.90450    1.000
    H223     H        0.20720    0.25830    0.04960    1.000
    H224     H        0.71420    0.36300    0.35130    1.000
    H225     H        0.68610    0.59040    0.49490    1.000
    H226     H        0.72230    0.19620    0.15000    1.000
    H227     H        0.35140    0.96310    0.67290    1.000
    H228     H        0.28580    0.01170    0.64870    1.000
    H229     H        0.31830    0.04910    0.33060    1.000
    H230     H        0.20720    0.95040    0.20870    1.000
    H231     H        0.80050    0.73040    0.17150    1.000
    H232     H        0.65440    0.29490    0.95550    1.000
    H233     H        0.75330    0.10710    0.36150    1.000
    H234     H        0.31830    0.28150    0.33060    1.000
    H235     H        0.08160    0.94360    0.55790    1.000
    H236     H        0.77840    0.65210    0.89260    1.000
    H237     H        0.75330    0.25440    0.89290    1.000
    H238     H        0.19950    0.17150    0.44110    1.000
    H239     H        0.31830    0.66940    0.95090    1.000
    H240     H        0.31830    0.28150    0.95090    1.000
    H241     H        0.17630    0.17010    0.42840    1.000
    H242     H        0.79280    0.95040    0.74170    1.000
    H243     H        0.64860    0.70980    0.03690    1.000
    H244     H        0.08160    0.38570    0.44210    1.000
    H245     H        0.60790    0.95210    0.22230    1.000
    H246     H        0.75330    0.63850    0.89290    1.000
    H247     H        0.77840    0.10740    0.75950    1.000
    H248     H        0.24670    0.36150    0.10710    1.000
    H249     H        0.39210    0.04790    0.77770    1.000
    H250     H        0.82370    0.82990    0.25830    1.000
    H251     H        0.72230    0.15000    0.95380    1.000
    H252     H        0.65440    0.04450    0.70510    1.000
    H253     H        0.35140    0.03690    0.70980    1.000
    H254     H        0.64860    0.96310    0.67290    1.000
    H255     H        0.68610    0.09550    0.50510    1.000
    H256     H        0.27770    0.95380    0.15000    1.000
    H257     H        0.34560    0.70510    0.04450    1.000
    H258     H        0.75330    0.10710    0.74560    1.000
    H259     H        0.75330    0.36150    0.10710    1.000
    H260     H        0.39820    0.72290    0.60810    1.000
    H261     H        0.60790    0.77770    0.04790    1.000
    H262     H        0.80050    0.55890    0.82850    1.000
    H263     H        0.41030    0.94650    0.22550    1.000
    H264     H        0.31830    0.04910    0.71850    1.000
    H265     H        0.82370    0.42840    0.25830    1.000
    H266     H        0.72230    0.80380    0.85000    1.000
    H267     H        0.58970    0.72100    0.94650    1.000
    H268     H        0.89700    0.54820    0.60630    1.000
    H269     H        0.91840    0.55790    0.61430    1.000
    H270     H        0.41030    0.72100    0.94650    1.000
    H271     H        0.20720    0.74170    0.95040    1.000
    H272     H        0.65440    0.70510    0.66060    1.000
    H273     H        0.75330    0.63850    0.74560    1.000
    H274     H        0.28580    0.98830    0.63700    1.000
    H275     H        0.80050    0.82850    0.26960    1.000
    H276     H        0.73290    0.42270    0.44030    1.000
    H277     H        0.82370    0.74170    0.17010    1.000
    H278     H        0.39820    0.11480    0.72290    1.000
    H279     H        0.68170    0.95090    0.66940    1.000
    H280     H        0.73290    0.42270    0.98240    1.000
    H281     H        0.28580    0.35130    0.98830    1.000
    H282     H        0.31390    0.09550    0.50510    1.000
    H283     H        0.91840    0.38570    0.94360    1.000
    H284     H        0.72230    0.04620    0.19620    1.000
    H285     H        0.77840    0.65210    0.75950    1.000
    H286     H        0.58970    0.27900    0.22550    1.000
    H287     H        0.60790    0.27020    0.04790    1.000
    H288     H        0.73290    0.55970    0.98240    1.000
    H289     H        0.19950    0.17150    0.73040    1.000
    H290     H        0.39820    0.72290    0.11480    1.000
    H291     H        0.68170    0.71850    0.66940    1.000
    H292     H        0.68170    0.04910    0.71850    1.000
    H293     H        0.28580    0.36300    0.35130    1.000
    H294     H        0.23050    0.77770    0.05370    1.000
    H295     H        0.79280    0.79130    0.74170    1.000
    H296     H        0.91840    0.38570    0.44210    1.000
    H297     H        0.60790    0.22230    0.27020    1.000
    H298     H        0.73290    0.55970    0.57730    1.000
    H299     H        0.77840    0.34790    0.24050    1.000
    H300     H        0.80050    0.26960    0.44110    1.000
    H301     H        0.08160    0.44210    0.38570    1.000
    H302     H        0.39820    0.88520    0.60810    1.000
    H303     H        0.28580    0.98830    0.35130    1.000
    H304     H        0.68610    0.90450    0.49490    1.000
    H305     H        0.72230    0.85000    0.04620    1.000
    H306     H        0.79280    0.79130    0.04960    1.000
    H307     H        0.82370    0.17010    0.42840    1.000
    H308     H        0.76950    0.77770    0.05370    1.000
    H309     H        0.70060    0.84000    0.78680    1.000
    H310     H        0.73290    0.57730    0.55970    1.000
    H311     H        0.39210    0.27020    0.22230    1.000
    H312     H        0.41030    0.05350    0.77450    1.000
    H313     H        0.68170    0.66940    0.95090    1.000
    H314     H        0.27770    0.19620    0.04620    1.000
    H315     H        0.35140    0.32710    0.29020    1.000
    H316     H        0.22160    0.10740    0.34790    1.000
    H317     H        0.73290    0.44030    0.01760    1.000
    H318     H        0.72230    0.80380    0.95380    1.000
    H319     H        0.34560    0.29490    0.95550    1.000
    H320     H        0.35140    0.96310    0.29020    1.000
    H321     H        0.35140    0.03690    0.32710    1.000
    H322     H        0.71420    0.35130    0.98830    1.000
    H323     H        0.89700    0.60630    0.54820    1.000
    H324     H        0.28580    0.36300    0.01170    1.000
    H325     H        0.68610    0.59040    0.09550    1.000
    H326     H        0.23050    0.27600    0.22230    1.000
    H327     H        0.64860    0.03690    0.32710    1.000
    H328     H        0.73290    0.98240    0.42270    1.000
    H329     H        0.27770    0.04620    0.19620    1.000
    H330     H        0.73290    0.44030    0.42270    1.000
    H331     H        0.17630    0.42840    0.25830    1.000
    H332     H        0.89700    0.60630    0.05810    1.000
    H333     H        0.23050    0.27600    0.05370    1.000
    H334     H        0.82370    0.17010    0.74170    1.000
    H335     H        0.58970    0.77450    0.72100    1.000
    H336     H        0.26710    0.55970    0.57730    1.000
    H337     H        0.65440    0.33940    0.04450    1.000
    H338     H        0.80050    0.82850    0.55890    1.000
    H339     H        0.34560    0.95550    0.66060    1.000
    H340     H        0.70060    0.21320    0.05320    1.000
    H341     H        0.19950    0.82850    0.26960    1.000
    H342     H        0.24670    0.63850    0.74560    1.000
    H343     H        0.65440    0.29490    0.33940    1.000
    H344     H        0.76950    0.94630    0.72400    1.000
    H345     H        0.20720    0.04960    0.79130    1.000
    H346     H        0.39210    0.04790    0.27020    1.000
    H347     H        0.31390    0.59040    0.09550    1.000
    H348     H        0.10300    0.05810    0.60630    1.000
    H349     H        0.17630    0.57160    0.74170    1.000
    H350     H        0.60180    0.72290    0.60810    1.000
    H351     H        0.91840    0.94360    0.38570    1.000
    H352     H        0.41030    0.22550    0.27900    1.000
    H353     H        0.76950    0.72400    0.94630    1.000
    H354     H        0.58970    0.94650    0.72100    1.000
    H355     H        0.89700    0.54820    0.94190    1.000
    H356     H        0.20720    0.25830    0.20870    1.000
    H357     H        0.26710    0.55970    0.98240    1.000
    H358     H        0.39210    0.77770    0.04790    1.000
    H359     H        0.19950    0.44110    0.17150    1.000
    H360     H        0.70060    0.21320    0.16000    1.000
    H361     H        0.39210    0.27020    0.04790    1.000
    H362     H        0.76950    0.05370    0.77770    1.000
    H363     H        0.80050    0.73040    0.55890    1.000
    H364     H        0.91840    0.94360    0.55790    1.000
    H365     H        0.77840    0.75950    0.10740    1.000
    H366     H        0.27770    0.85000    0.80380    1.000
    H367     H        0.72230    0.95380    0.15000    1.000
    H368     H        0.31830    0.33060    0.28150    1.000
    H369     H        0.08160    0.55790    0.94360    1.000
    H370     H        0.70060    0.05320    0.84000    1.000
    H371     H        0.71420    0.98830    0.35130    1.000
    H372     H        0.34560    0.70510    0.66060    1.000
    H373     H        0.80050    0.44110    0.17150    1.000
    H374     H        0.23050    0.22230    0.94630    1.000
    H375     H        0.17630    0.17010    0.74170    1.000
    H376     H        0.72230    0.19620    0.04620    1.000
    H377     H        0.39820    0.27710    0.88520    1.000
    H378     H        0.20720    0.74170    0.79130    1.000
    H379     H        0.20720    0.20870    0.95040    1.000
    H380     H        0.91840    0.05640    0.61430    1.000
    H381     H        0.35140    0.70980    0.03690    1.000
    H382     H        0.65440    0.04450    0.33940    1.000
    H383     H        0.77840    0.89260    0.24050    1.000
    H384     H        0.26710    0.01760    0.44030    1.000
    H385     H        0.58970    0.22550    0.27900    1.000
    H386     H        0.72230    0.85000    0.80380    1.000
    H387     H        0.71420    0.35130    0.36300    1.000
    H388     H        0.58970    0.94650    0.22550    1.000
    H389     H        0.34560    0.66060    0.95550    1.000
    H390     H        0.08160    0.38570    0.94360    1.000
    H391     H        0.35140    0.70980    0.67290    1.000
    H392     H        0.19950    0.73040    0.55890    1.000
    H393     H        0.31830    0.71850    0.66940    1.000
    H394     H        0.68610    0.90450    0.40960    1.000
    H395     H        0.22160    0.65210    0.89260    1.000
    H396     H        0.39820    0.39190    0.11480    1.000
    H397     H        0.76950    0.22230    0.27600    1.000
    H398     H        0.71420    0.64870    0.63700    1.000
    H399     H        0.79280    0.74170    0.79130    1.000
    H400     H        0.27770    0.15000    0.19620    1.000
    H401     H        0.65440    0.33940    0.29490    1.000
    H402     H        0.19950    0.44110    0.26960    1.000
    H403     H        0.70060    0.78680    0.84000    1.000
    H404     H        0.24670    0.10710    0.36150    1.000
    H405     H        0.22160    0.34790    0.10740    1.000
    H406     H        0.64860    0.67290    0.70980    1.000
    H407     H        0.29940    0.21320    0.16000    1.000
    H408     H        0.19950    0.26960    0.44110    1.000
    H409     H        0.20720    0.79130    0.74170    1.000
    H410     H        0.19950    0.26960    0.82850    1.000
    H411     H        0.27770    0.19620    0.15000    1.000
    H412     H        0.34560    0.33940    0.04450    1.000
    H413     H        0.65440    0.95550    0.66060    1.000
    H414     H        0.31390    0.90450    0.49490    1.000
    H415     H        0.27770    0.80380    0.95380    1.000
    H416     H        0.80050    0.26960    0.82850    1.000
    H417     H        0.34560    0.29490    0.33940    1.000
    H418     H        0.73290    0.01760    0.57730    1.000
    H419     H        0.58970    0.05350    0.27900    1.000
    H420     H        0.76950    0.22230    0.94630    1.000
    H421     H        0.26710    0.01760    0.57730    1.000
    H422     H        0.76950    0.72400    0.77770    1.000
    H423     H        0.41030    0.05350    0.27900    1.000
    H424     H        0.60180    0.88520    0.60810    1.000
    H425     H        0.39210    0.22230    0.27020    1.000
    H426     H        0.34560    0.66060    0.70510    1.000
    H427     H        0.29940    0.78680    0.94680    1.000
    H428     H        0.91840    0.05640    0.44210    1.000
    H429     H        0.60180    0.27710    0.88520    1.000
    H430     H        0.79280    0.04960    0.25830    1.000
    H431     H        0.68170    0.71850    0.04910    1.000
    H432     H        0.28580    0.63700    0.64870    1.000
    H433     H        0.60180    0.60810    0.88520    1.000
    H434     H        0.68610    0.09550    0.59040    1.000
    H435     H        0.27770    0.04620    0.85000    1.000
    H436     H        0.17630    0.82990    0.25830    1.000
    H437     H        0.34560    0.33940    0.29490    1.000
    H438     H        0.71420    0.98830    0.63700    1.000
    H439     H        0.73290    0.98240    0.55970    1.000
    H440     H        0.27770    0.85000    0.04620    1.000
    H441     H        0.75330    0.89290    0.63850    1.000
    H442     H        0.26710    0.44030    0.01760    1.000
    H443     H        0.24670    0.36150    0.25440    1.000
    H444     H        0.24670    0.89290    0.63850    1.000
    H445     H        0.22160    0.10740    0.75950    1.000
    H446     H        0.68170    0.28150    0.33060    1.000
    H447     H        0.82370    0.57160    0.74170    1.000
    H448     H        0.58970    0.22550    0.94650    1.000
    H449     H        0.91840    0.61430    0.05640    1.000
    H450     H        0.10300    0.45180    0.05810    1.000
    H451     H        0.28580    0.35130    0.36300    1.000
    H452     H        0.65440    0.95550    0.29490    1.000
    H453     H        0.31390    0.59040    0.49490    1.000
    H454     H        0.68170    0.66940    0.71850    1.000
    H455     H        0.60790    0.04790    0.27020    1.000
    H456     H        0.80050    0.44110    0.26960    1.000
    C1       C        0.17040    0.02920    0.63540    1.000
    C2       C        0.14590    0.38070    0.35180    1.000
    C3       C        0.66500    0.30310    0.02660    1.000
    C4       C        0.85180    0.87960    0.33360    1.000
    C5       C        0.71930    0.00310    0.28970    1.000
    C6       C        0.68980    0.29390    0.26420    1.000
    C7       C        0.67800    0.46900    0.38540    1.000
    C8       C        0.38310    0.83520    0.83760    1.000
    C9       C        0.87320    0.11940    0.44370    1.000
    C10      C        0.34030    0.20190    0.20470    1.000
    C11      C        0.66500    0.27650    0.97340    1.000
    C12      C        0.32200    0.46900    0.08360    1.000
    C13      C        0.85410    0.02890    0.64820    1.000
    C14      C        0.21100    0.36660    0.32200    1.000
    C15      C        0.19070    0.86470    0.57220    1.000
    C16      C        0.81520    0.04470    0.69250    1.000
    C17      C        0.11180    0.33840    0.50020    1.000
    C18      C        0.31020    0.70610    0.73580    1.000
    C19      C        0.30760    0.77140    0.80340    1.000
    C20      C        0.29400    0.96210    0.56900    1.000
    C21      C        0.18480    0.30750    0.95530    1.000
    C22      C        0.25550    0.27450    0.00080    1.000
    C23      C        0.17040    0.02920    0.39380    1.000
    C24      C        0.74450    0.27370    0.99920    1.000
    C25      C        0.14820    0.33360    0.87960    1.000
    C26      C        0.69240    0.22860    0.19660    1.000
    C27      C        0.65970    0.20470    0.00280    1.000
    C28      C        0.60700    0.50800    0.67100    1.000
    C29      C        0.19070    0.13530    0.42780    1.000
    C30      C        0.29400    0.39310    0.43100    1.000
    C31      C        0.31020    0.73580    0.02970    1.000
    C32      C        0.40180    0.17580    0.00300    1.000
    C33      C        0.37160    0.30670    0.90500    1.000
    C34      C        0.19620    0.63210    0.90290    1.000
    C35      C        0.18480    0.64780    0.69250    1.000
    C36      C        0.75590    0.22130    0.97160    1.000
    C37      C        0.68980    0.26420    0.97030    1.000
    C38      C        0.78900    0.63340    0.67800    1.000
    C39      C        0.71930    0.71030    0.99690    1.000
    C40      C        0.14590    0.38070    0.02890    1.000
    C41      C        0.82960    0.39380    0.36460    1.000
    C42      C        0.11180    0.50020    0.16180    1.000
    C43      C        0.11240    0.42530    0.06650    1.000
    C44      C        0.16770    0.71880    0.13380    1.000
    C45      C        0.21100    0.36660    0.04460    1.000
    C46      C        0.70600    0.39310    0.43100    1.000
    C47      C        0.73250    0.96730    0.23360    1.000
    C48      C        0.66500    0.72350    0.69690    1.000
    C49      C        0.75590    0.97160    0.75030    1.000
    C50      C        0.35320    0.22850    0.97050    1.000
    C51      C        0.75590    0.75030    0.77870    1.000
    C52      C        0.59820    0.82720    0.82420    1.000
    C53      C        0.40180    0.82720    0.00300    1.000
    C54      C        0.83230    0.86620    0.58500    1.000
    C55      C        0.71930    0.71340    0.71030    1.000
    C56      C        0.32200    0.91640    0.38540    1.000
    C57      C        0.22080    0.61840    0.71570    1.000
    C58      C        0.63950    0.54540    0.65790    1.000
    C59      C        0.31020    0.02970    0.73580    1.000
    C60      C        0.31020    0.02970    0.29390    1.000
    C61      C        0.67800    0.53100    0.61460    1.000
    C62      C        0.21100    0.32200    0.36660    1.000
    C63      C        0.13530    0.93220    0.36800    1.000
    C64      C        0.69240    0.19660    0.22860    1.000
    C65      C        0.80380    0.72920    0.09710    1.000
    C66      C        0.78900    0.36660    0.32200    1.000
    C67      C        0.11240    0.93350    0.57470    1.000
    C68      C        0.09580    0.66800    0.50670    1.000
    C69      C        0.70600    0.03790    0.43100    1.000
    C70      C        0.28610    0.18670    0.21350    1.000
    C71      C        0.30500    0.35800    0.37800    1.000
    C72      C        0.70600    0.39310    0.96210    1.000
    C73      C        0.85180    0.66640    0.12040    1.000
    C74      C        0.32200    0.53100    0.91640    1.000
    C75      C        0.86470    0.56420    0.63200    1.000
    C76      C        0.30500    0.37800    0.02000    1.000
    C77      C        0.36050    0.88750    0.54540    1.000
    C78      C        0.82960    0.63540    0.02920    1.000
    C79      C        0.64680    0.97050    0.22850    1.000
    C80      C        0.26750    0.76640    0.73370    1.000
    C81      C        0.70600    0.56900    0.96210    1.000
    C82      C        0.19620    0.27080    0.90290    1.000
    C83      C        0.67800    0.38540    0.91640    1.000
    C84      C        0.83230    0.28120    0.41500    1.000
    C85      C        0.69240    0.80340    0.77140    1.000
    C86      C        0.68980    0.02970    0.29390    1.000
    C87      C        0.62840    0.30670    0.90500    1.000
    C88      C        0.82960    0.97080    0.60620    1.000
    C89      C        0.34400    0.36330    0.04930    1.000
    C90      C        0.12680    0.11940    0.67570    1.000
    C91      C        0.78900    0.32200    0.36660    1.000
    C92      C        0.67800    0.61460    0.08360    1.000
    C93      C        0.21100    0.63340    0.67800    1.000
    C94      C        0.17040    0.36460    0.97080    1.000
    C95      C        0.28610    0.21350    0.02680    1.000
    C96      C        0.24410    0.75030    0.77870    1.000
    C97      C        0.83230    0.13380    0.71880    1.000
    C98      C        0.35320    0.74200    0.77150    1.000
    C99      C        0.65600    0.04930    0.68600    1.000
    C100     C        0.78900    0.95540    0.63340    1.000
    C101     C        0.65970    0.20470    0.20190    1.000
    C102     C        0.11180    0.66160    0.49980    1.000
    C103     C        0.65600    0.31400    0.95070    1.000
    C104     C        0.30760    0.22860    0.19660    1.000
    C105     C        0.61690    0.99760    0.16240    1.000
    C106     C        0.31020    0.97030    0.70610    1.000
    C107     C        0.69500    0.37800    0.35800    1.000
    C108     C        0.65970    0.00280    0.79810    1.000
    C109     C        0.14820    0.33360    0.45400    1.000
    C110     C        0.74450    0.72630    0.72550    1.000
    C111     C        0.78900    0.67800    0.04460    1.000
    C112     C        0.69500    0.98000    0.35800    1.000
    C113     C        0.65970    0.20190    0.99720    1.000
    C114     C        0.33500    0.30310    0.27650    1.000
    C115     C        0.78900    0.95540    0.32200    1.000
    C116     C        0.80930    0.86470    0.29250    1.000
    C117     C        0.66500    0.69690    0.72350    1.000
    C118     C        0.61690    0.00240    0.83760    1.000
    C119     C        0.60700    0.49200    0.16300    1.000
    C120     C        0.11180    0.16180    0.66160    1.000
    C121     C        0.22080    0.09730    0.38160    1.000
    C122     C        0.39300    0.83700    0.32900    1.000
    C123     C        0.65970    0.99720    0.20190    1.000
    C124     C        0.64680    0.97050    0.74200    1.000
    C125     C        0.86470    0.43580    0.06780    1.000
    C126     C        0.90420    0.33200    0.49330    1.000
    C127     C        0.85410    0.02890    0.38070    1.000
    C128     C        0.71390    0.21350    0.18670    1.000
    C129     C        0.09580    0.16130    0.49330    1.000
    C130     C        0.36050    0.88750    0.34210    1.000
    C131     C        0.64680    0.74200    0.97050    1.000
    C132     C        0.74450    0.72550    0.99920    1.000
    C133     C        0.61690    0.83520    0.99760    1.000
    C134     C        0.65600    0.95070    0.63670    1.000
    C135     C        0.26750    0.76640    0.03270    1.000
    C136     C        0.35320    0.25800    0.22850    1.000
    C137     C        0.19620    0.27080    0.36790    1.000
    C138     C        0.62540    0.26750    0.03070    1.000
    C139     C        0.18480    0.30750    0.35220    1.000
    C140     C        0.36050    0.54540    0.88750    1.000
    C141     C        0.26750    0.23360    0.96730    1.000
    C142     C        0.90420    0.50670    0.66800    1.000
    C143     C        0.24410    0.02840    0.24970    1.000
    C144     C        0.65970    0.99720    0.79530    1.000
    C145     C        0.11180    0.83820    0.33840    1.000
    C146     C        0.36050    0.34210    0.45460    1.000
    C147     C        0.67800    0.08360    0.46900    1.000
    C148     C        0.21100    0.95540    0.32200    1.000
    C149     C        0.75590    0.24970    0.02840    1.000
    C150     C        0.37160    0.09500    0.40170    1.000
    C151     C        0.11180    0.49980    0.66160    1.000
    C152     C        0.81520    0.64780    0.69250    1.000
    C153     C        0.73250    0.26630    0.03270    1.000
    C154     C        0.85180    0.54600    0.66640    1.000
    C155     C        0.60700    0.16300    0.49200    1.000
    C156     C        0.83230    0.58500    0.71880    1.000
    C157     C        0.68980    0.29390    0.02970    1.000
    C158     C        0.75590    0.77870    0.02840    1.000
    C159     C        0.85180    0.12040    0.45400    1.000
    C160     C        0.62540    0.73250    0.76320    1.000
    C161     C        0.65600    0.63670    0.95070    1.000
    C162     C        0.24410    0.75030    0.97160    1.000
    C163     C        0.34030    0.99720    0.79530    1.000
    C164     C        0.22080    0.71570    0.61840    1.000
    C165     C        0.85180    0.54600    0.87960    1.000
    C166     C        0.62840    0.09500    0.40170    1.000
    C167     C        0.35320    0.77150    0.02950    1.000
    C168     C        0.30760    0.77140    0.96800    1.000
    C169     C        0.63950    0.11250    0.65790    1.000
    C170     C        0.71390    0.02680    0.21350    1.000
    C171     C        0.33500    0.69690    0.72350    1.000
    C172     C        0.61690    0.16240    0.16480    1.000
    C173     C        0.28610    0.97320    0.18670    1.000
    C174     C        0.83230    0.13380    0.41500    1.000
    C175     C        0.69240    0.77140    0.80340    1.000
    C176     C        0.87320    0.55630    0.88060    1.000
    C177     C        0.12680    0.44370    0.11940    1.000
    C178     C        0.77920    0.09730    0.38160    1.000
    C179     C        0.86470    0.93220    0.56420    1.000
    C180     C        0.59820    0.82420    0.99700    1.000
    C181     C        0.17040    0.60620    0.97080    1.000
    C182     C        0.35320    0.22850    0.25800    1.000
    C183     C        0.60700    0.32900    0.49200    1.000
    C184     C        0.59820    0.00300    0.17580    1.000
    C185     C        0.85410    0.38070    0.35180    1.000
    C186     C        0.83230    0.41500    0.28120    1.000
    C187     C        0.64680    0.25800    0.22850    1.000
    C188     C        0.75590    0.02840    0.24970    1.000
    C189     C        0.71930    0.00310    0.71340    1.000
    C190     C        0.14820    0.45400    0.12040    1.000
    C191     C        0.39300    0.50800    0.67100    1.000
    C192     C        0.59820    0.17580    0.00300    1.000
    C193     C        0.37460    0.26750    0.23680    1.000
    C194     C        0.24410    0.24970    0.02840    1.000
    C195     C        0.16770    0.86620    0.28120    1.000
    C196     C        0.32200    0.08360    0.61460    1.000
    C197     C        0.77920    0.61840    0.71570    1.000
    C198     C        0.71390    0.97320    0.78650    1.000
    C199     C        0.18480    0.04470    0.69250    1.000
    C200     C        0.19620    0.72920    0.63210    1.000
    C201     C        0.69240    0.03200    0.80340    1.000
    C202     C        0.82960    0.60620    0.63540    1.000
    C203     C        0.19070    0.70750    0.57220    1.000
    C204     C        0.35320    0.97050    0.74200    1.000
    C205     C        0.24410    0.02840    0.77870    1.000
    C206     C        0.90420    0.16130    0.66800    1.000
    C207     C        0.40180    0.82420    0.99700    1.000
    C208     C        0.16770    0.71880    0.58500    1.000
    C209     C        0.86470    0.93220    0.36800    1.000
    C210     C        0.39300    0.16300    0.49200    1.000
    C211     C        0.60700    0.67100    0.50800    1.000
    C212     C        0.88820    0.50020    0.33840    1.000
    C213     C        0.86470    0.56420    0.93220    1.000
    C214     C        0.75590    0.75030    0.97160    1.000
    C215     C        0.66500    0.69690    0.97340    1.000
    C216     C        0.69240    0.22860    0.03200    1.000
    C217     C        0.85180    0.66640    0.54600    1.000
    C218     C        0.36050    0.65790    0.54540    1.000
    C219     C        0.73250    0.76640    0.73370    1.000
    C220     C        0.33500    0.72350    0.69690    1.000
    C221     C        0.37460    0.03070    0.26750    1.000
    C222     C        0.18480    0.95530    0.30750    1.000
    C223     C        0.11240    0.35880    0.42530    1.000
    C224     C        0.66500    0.97340    0.27650    1.000
    C225     C        0.37160    0.30670    0.40170    1.000
    C226     C        0.36050    0.65790    0.11250    1.000
    C227     C        0.26750    0.26630    0.23360    1.000
    C228     C        0.13530    0.06780    0.43580    1.000
    C229     C        0.82960    0.63540    0.60620    1.000
    C230     C        0.80380    0.63210    0.72920    1.000
    C231     C        0.17040    0.36460    0.39380    1.000
    C232     C        0.62840    0.90500    0.30670    1.000
    C233     C        0.19620    0.90290    0.63210    1.000
    C234     C        0.77920    0.61840    0.90270    1.000
    C235     C        0.68980    0.70610    0.73580    1.000
    C236     C        0.88760    0.06650    0.42530    1.000
    C237     C        0.39300    0.32900    0.49200    1.000
    C238     C        0.80930    0.42780    0.13530    1.000
    C239     C        0.69240    0.96800    0.19660    1.000
    C240     C        0.87320    0.88060    0.32430    1.000
    C241     C        0.21100    0.63340    0.95540    1.000
    C242     C        0.34400    0.68600    0.04930    1.000
    C243     C        0.64680    0.02950    0.77150    1.000
    C244     C        0.60700    0.16300    0.67100    1.000
    C245     C        0.39300    0.49200    0.16300    1.000
    C246     C        0.38310    0.16240    0.99760    1.000
    C247     C        0.62540    0.23680    0.96930    1.000
    C248     C        0.90420    0.66800    0.16130    1.000
    C249     C        0.90420    0.33200    0.83870    1.000
    C250     C        0.66500    0.02660    0.72350    1.000
    C251     C        0.18480    0.69250    0.04470    1.000
    C252     C        0.34400    0.68600    0.63670    1.000
    C253     C        0.21100    0.67800    0.04460    1.000
    C254     C        0.38310    0.16480    0.00240    1.000
    C255     C        0.28070    0.28970    0.28660    1.000
    C256     C        0.75590    0.24970    0.22130    1.000
    C257     C        0.70600    0.43100    0.39310    1.000
    C258     C        0.65600    0.36330    0.31400    1.000
    C259     C        0.19070    0.13530    0.70750    1.000
    C260     C        0.90420    0.50670    0.83870    1.000
    C261     C        0.75590    0.02840    0.77870    1.000
    C262     C        0.61690    0.99760    0.83520    1.000
    C263     C        0.28610    0.81330    0.02680    1.000
    C264     C        0.69240    0.96800    0.77140    1.000
    C265     C        0.09580    0.83870    0.50670    1.000
    C266     C        0.11180    0.66160    0.16180    1.000
    C267     C        0.13530    0.56420    0.93220    1.000
    C268     C        0.38310    0.00240    0.16480    1.000
    C269     C        0.36050    0.11250    0.65790    1.000
    C270     C        0.19620    0.90290    0.27080    1.000
    C271     C        0.71930    0.71340    0.00310    1.000
    C272     C        0.22080    0.90270    0.28430    1.000
    C273     C        0.33500    0.69690    0.97340    1.000
    C274     C        0.85410    0.35180    0.97110    1.000
    C275     C        0.70600    0.56900    0.60690    1.000
    C276     C        0.38310    0.99760    0.16240    1.000
    C277     C        0.19070    0.70750    0.13530    1.000
    C278     C        0.36050    0.34210    0.88750    1.000
    C279     C        0.34400    0.31400    0.36330    1.000
    C280     C        0.19070    0.29250    0.86470    1.000
    C281     C        0.61690    0.16240    0.99760    1.000
    C282     C        0.30760    0.03200    0.22860    1.000
    C283     C        0.88760    0.93350    0.57470    1.000
    C284     C        0.39300    0.83700    0.50800    1.000
    C285     C        0.70600    0.60690    0.56900    1.000
    C286     C        0.62840    0.59830    0.90500    1.000
    C287     C        0.22080    0.28430    0.90270    1.000
    C288     C        0.73250    0.23360    0.26630    1.000
    C289     C        0.39300    0.16300    0.67100    1.000
    C290     C        0.64010    0.78540    0.78540    1.000
    C291     C        0.11240    0.42530    0.35880    1.000
    C292     C        0.36050    0.11250    0.45460    1.000
    C293     C        0.37160    0.69330    0.59830    1.000
    C294     C        0.88760    0.64120    0.06650    1.000
    C295     C        0.90420    0.83870    0.33200    1.000
    C296     C        0.29400    0.43100    0.03790    1.000
    C297     C        0.87320    0.11940    0.67570    1.000
    C298     C        0.28610    0.78650    0.81330    1.000
    C299     C        0.28610    0.78650    0.97320    1.000
    C300     C        0.24410    0.24970    0.22130    1.000
    C301     C        0.80930    0.13530    0.42780    1.000
    C302     C        0.73250    0.73370    0.76640    1.000
    C303     C        0.62840    0.69330    0.59830    1.000
    C304     C        0.86470    0.06780    0.43580    1.000
    C305     C        0.60700    0.83700    0.32900    1.000
    C306     C        0.39300    0.50800    0.83700    1.000
    C307     C        0.65600    0.63670    0.68600    1.000
    C308     C        0.59820    0.00300    0.82720    1.000
    C309     C        0.13530    0.36800    0.93220    1.000
    C310     C        0.85180    0.12040    0.66640    1.000
    C311     C        0.34030    0.79530    0.79810    1.000
    C312     C        0.38310    0.16480    0.16240    1.000
    C313     C        0.85180    0.45400    0.33360    1.000
    C314     C        0.71930    0.28970    0.28660    1.000
    C315     C        0.30500    0.02000    0.37800    1.000
    C316     C        0.22080    0.38160    0.09730    1.000
    C317     C        0.78900    0.32200    0.95540    1.000
    C318     C        0.59820    0.17280    0.17580    1.000
    C319     C        0.59820    0.17280    0.99700    1.000
    C320     C        0.90420    0.49330    0.33200    1.000
    C321     C        0.78900    0.04460    0.67800    1.000
    C322     C        0.77920    0.90270    0.28430    1.000
    C323     C        0.28610    0.97320    0.78650    1.000
    C324     C        0.25550    0.27450    0.27370    1.000
    C325     C        0.35320    0.74200    0.97050    1.000
    C326     C        0.09580    0.33200    0.83870    1.000
    C327     C        0.63950    0.45460    0.34210    1.000
    C328     C        0.70600    0.96210    0.39310    1.000
    C329     C        0.40180    0.82720    0.82420    1.000
    C330     C        0.26750    0.26630    0.03270    1.000
    C331     C        0.77920    0.09730    0.71570    1.000
    C332     C        0.36050    0.45460    0.11250    1.000
    C333     C        0.37460    0.73250    0.76320    1.000
    C334     C        0.86470    0.36800    0.43580    1.000
    C335     C        0.35990    0.00000    0.21460    1.000
    C336     C        0.66500    0.30310    0.27650    1.000
    C337     C        0.80930    0.70750    0.57220    1.000
    C338     C        0.12680    0.67570    0.55630    1.000
    C339     C        0.64680    0.77150    0.02950    1.000
    C340     C        0.37160    0.59830    0.90500    1.000
    C341     C        0.30760    0.19660    0.96800    1.000
    C342     C        0.38310    0.16240    0.16480    1.000
    C343     C        0.11180    0.16180    0.50020    1.000
    C344     C        0.62540    0.76320    0.03070    1.000
    C345     C        0.68980    0.26420    0.29390    1.000
    C346     C        0.81520    0.30750    0.35220    1.000
    C347     C        0.63950    0.88750    0.54540    1.000
    C348     C        0.82960    0.97080    0.36460    1.000
    C349     C        0.28610    0.21350    0.18670    1.000
    C350     C        0.26750    0.73370    0.76640    1.000
    C351     C        0.19620    0.09710    0.36790    1.000
    C352     C        0.33500    0.72350    0.02660    1.000
    C353     C        0.90420    0.83870    0.50670    1.000
    C354     C        0.71390    0.81330    0.02680    1.000
    C355     C        0.29400    0.60690    0.03790    1.000
    C356     C        0.68980    0.97030    0.26420    1.000
    C357     C        0.16770    0.86620    0.58500    1.000
    C358     C        0.30500    0.64200    0.62200    1.000
    C359     C        0.77920    0.28430    0.38160    1.000
    C360     C        0.21100    0.04460    0.36660    1.000
    C361     C        0.30500    0.98000    0.35800    1.000
    C362     C        0.26750    0.96730    0.23360    1.000
    C363     C        0.17040    0.39380    0.36460    1.000
    C364     C        0.62840    0.69330    0.09500    1.000
    C365     C        0.37460    0.73250    0.96930    1.000
    C366     C        0.82960    0.39380    0.02920    1.000
    C367     C        0.63950    0.34210    0.45460    1.000
    C368     C        0.29400    0.56900    0.96210    1.000
    C369     C        0.80930    0.29250    0.42780    1.000
    C370     C        0.35320    0.25800    0.02950    1.000
    C371     C        0.62840    0.09500    0.69330    1.000
    C372     C        0.21100    0.32200    0.95540    1.000
    C373     C        0.09580    0.66800    0.16130    1.000
    C374     C        0.25550    0.00080    0.27450    1.000
    C375     C        0.16770    0.28120    0.86620    1.000
    C376     C        0.34400    0.95070    0.31400    1.000
    C377     C        0.21100    0.04460    0.67800    1.000
    C378     C        0.86470    0.36800    0.93220    1.000
    C379     C        0.32200    0.61460    0.08360    1.000
    C380     C        0.69500    0.64200    0.62200    1.000
    C381     C        0.69240    0.77140    0.96800    1.000
    C382     C        0.33500    0.27650    0.97340    1.000
    C383     C        0.86470    0.63200    0.06780    1.000
    C384     C        0.29400    0.03790    0.43100    1.000
    C385     C        0.75590    0.77870    0.75030    1.000
    C386     C        0.69240    0.80340    0.03200    1.000
    C387     C        0.63950    0.45460    0.11250    1.000
    C388     C        0.28070    0.28970    0.00310    1.000
    C389     C        0.71930    0.99690    0.71030    1.000
    C390     C        0.12680    0.44370    0.32430    1.000
    C391     C        0.33500    0.02660    0.30310    1.000
    C392     C        0.60700    0.49200    0.32900    1.000
    C393     C        0.16770    0.13380    0.71880    1.000
    C394     C        0.13530    0.06780    0.63200    1.000
    C395     C        0.77920    0.28430    0.90270    1.000
    C396     C        0.12680    0.11940    0.44370    1.000
    C397     C        0.35990    0.78540    0.00000    1.000
    C398     C        0.11240    0.57470    0.93350    1.000
    C399     C        0.09580    0.83870    0.33200    1.000
    C400     C        0.19620    0.36790    0.27080    1.000
    C401     C        0.80930    0.57220    0.86470    1.000
    C402     C        0.34400    0.63670    0.95070    1.000
    C403     C        0.37160    0.90500    0.30670    1.000
    C404     C        0.14820    0.12040    0.45400    1.000
    C405     C        0.26750    0.03270    0.76640    1.000
    C406     C        0.88820    0.66160    0.49980    1.000
    C407     C        0.35320    0.02950    0.77150    1.000
    C408     C        0.30500    0.64200    0.02000    1.000
    C409     C        0.21100    0.67800    0.63340    1.000
    C410     C        0.64010    0.00000    0.78540    1.000
    C411     C        0.11180    0.49980    0.83820    1.000
    C412     C        0.69240    0.19660    0.96800    1.000
    C413     C        0.62540    0.26750    0.23680    1.000
    C414     C        0.32200    0.08360    0.46900    1.000
    C415     C        0.35990    0.78540    0.78540    1.000
    C416     C        0.30760    0.96800    0.19660    1.000
    C417     C        0.85180    0.45400    0.12040    1.000
    C418     C        0.37460    0.96930    0.73250    1.000
    C419     C        0.59820    0.99700    0.82420    1.000
    C420     C        0.60700    0.67100    0.16300    1.000
    C421     C        0.37160    0.40170    0.30670    1.000
    C422     C        0.30760    0.19660    0.22860    1.000
    C423     C        0.77920    0.90270    0.61840    1.000
    C424     C        0.80930    0.70750    0.13530    1.000
    C425     C        0.35990    0.21460    0.00000    1.000
    C426     C        0.33500    0.97340    0.69690    1.000
    C427     C        0.11240    0.06650    0.64120    1.000
    C428     C        0.32200    0.38540    0.91640    1.000
    C429     C        0.61690    0.83760    0.83520    1.000
    C430     C        0.34400    0.04930    0.68600    1.000
    C431     C        0.31020    0.26420    0.29390    1.000
    C432     C        0.38310    0.99760    0.83520    1.000
    C433     C        0.78900    0.67800    0.63340    1.000
    C434     C        0.69500    0.98000    0.62200    1.000
    C435     C        0.88820    0.50020    0.16180    1.000
    C436     C        0.62540    0.23680    0.26750    1.000
    C437     C        0.30500    0.37800    0.35800    1.000
    C438     C        0.78900    0.63340    0.95540    1.000
    C439     C        0.39300    0.67100    0.50800    1.000
    C440     C        0.37460    0.96930    0.23680    1.000
    C441     C        0.09580    0.33200    0.49330    1.000
    C442     C        0.40180    0.00300    0.17580    1.000
    C443     C        0.14820    0.66640    0.54600    1.000
    C444     C        0.12680    0.67570    0.11940    1.000
    C445     C        0.62540    0.96930    0.73250    1.000
    C446     C        0.13530    0.43580    0.06780    1.000
    C447     C        0.13530    0.36800    0.43580    1.000
    C448     C        0.88760    0.42530    0.35880    1.000
    C449     C        0.40180    0.17580    0.17280    1.000
    C450     C        0.71390    0.02680    0.81330    1.000
    C451     C        0.28610    0.02680    0.81330    1.000
    C452     C        0.59820    0.17580    0.17280    1.000
    C453     C        0.85410    0.64820    0.02890    1.000
    C454     C        0.13530    0.63200    0.56420    1.000
    C455     C        0.69240    0.03200    0.22860    1.000
    C456     C        0.24410    0.77870    0.75030    1.000
    C457     C        0.83230    0.58500    0.86620    1.000
    C458     C        0.86470    0.06780    0.63200    1.000
    C459     C        0.19620    0.72920    0.09710    1.000
    C460     C        0.73250    0.03270    0.76640    1.000
    C461     C        0.73250    0.96730    0.73370    1.000
    C462     C        0.59820    0.82420    0.82720    1.000
    C463     C        0.64680    0.22850    0.97050    1.000
    C464     C        0.25550    0.99920    0.72550    1.000
    C465     C        0.88760    0.42530    0.06650    1.000
    C466     C        0.73250    0.03270    0.26630    1.000
    C467     C        0.81520    0.69250    0.04470    1.000
    C468     C        0.81520    0.64780    0.95530    1.000
    C469     C        0.70600    0.60690    0.03790    1.000
    C470     C        0.29400    0.39310    0.96210    1.000
    C471     C        0.22080    0.61840    0.90270    1.000
    C472     C        0.59820    0.82720    0.00300    1.000
    C473     C        0.80380    0.27080    0.36790    1.000
    C474     C        0.34400    0.95070    0.63670    1.000
    C475     C        0.77920    0.71570    0.09730    1.000
    C476     C        0.30500    0.02000    0.64200    1.000
    C477     C        0.61690    0.83520    0.83760    1.000
    C478     C        0.90420    0.16130    0.49330    1.000
    C479     C        0.14820    0.66640    0.12040    1.000
    C480     C        0.87320    0.55630    0.67570    1.000
    C481     C        0.37160    0.59830    0.69330    1.000
    C482     C        0.14590    0.64820    0.02890    1.000
    C483     C        0.65600    0.04930    0.36330    1.000
    C484     C        0.38310    0.83520    0.99760    1.000
    C485     C        0.34030    0.20470    0.00280    1.000
    C486     C        0.35990    0.21460    0.21460    1.000
    C487     C        0.28070    0.99690    0.28660    1.000
    C488     C        0.65600    0.36330    0.04930    1.000
    C489     C        0.28070    0.71340    0.71030    1.000
    C490     C        0.28070    0.28660    0.99690    1.000
    C491     C        0.40180    0.17280    0.99700    1.000
    C492     C        0.78900    0.04460    0.36660    1.000
    C493     C        0.19070    0.42780    0.13530    1.000
    C494     C        0.87320    0.67570    0.55630    1.000
    C495     C        0.85410    0.64820    0.61930    1.000
    C496     C        0.82960    0.60620    0.97080    1.000
    C497     C        0.25550    0.72550    0.99920    1.000
    C498     C        0.63950    0.11250    0.45460    1.000
    C499     C        0.71930    0.99690    0.28660    1.000
    C500     C        0.13530    0.93220    0.56420    1.000
    C501     C        0.28610    0.02680    0.21350    1.000
    C502     C        0.30500    0.62200    0.98000    1.000
    C503     C        0.62840    0.59830    0.69330    1.000
    C504     C        0.88760    0.64120    0.57470    1.000
    C505     C        0.67800    0.38540    0.46900    1.000
    C506     C        0.83230    0.71880    0.58500    1.000
    C507     C        0.88820    0.49980    0.83820    1.000
    C508     C        0.80930    0.86470    0.57220    1.000
    C509     C        0.69500    0.35800    0.37800    1.000
    C510     C        0.34030    0.00280    0.79810    1.000
    C511     C        0.24410    0.22130    0.97160    1.000
    C512     C        0.69500    0.62200    0.98000    1.000
    C513     C        0.66500    0.02660    0.30310    1.000
    C514     C        0.34030    0.79810    0.79530    1.000
    C515     C        0.17040    0.60620    0.63540    1.000
    C516     C        0.09580    0.49330    0.16130    1.000
    C517     C        0.14590    0.61930    0.64820    1.000
    C518     C        0.26750    0.73370    0.96730    1.000
    C519     C        0.65970    0.79810    0.00280    1.000
    C520     C        0.64680    0.74200    0.77150    1.000
    C521     C        0.87320    0.32430    0.44370    1.000
    C522     C        0.40180    0.00300    0.82720    1.000
    C523     C        0.34400    0.04930    0.36330    1.000
    C524     C        0.81520    0.69250    0.64780    1.000
    C525     C        0.88820    0.83820    0.49980    1.000
    C526     C        0.40180    0.99700    0.82420    1.000
    C527     C        0.85410    0.35180    0.38070    1.000
    C528     C        0.60700    0.50800    0.83700    1.000
    C529     C        0.36050    0.45460    0.34210    1.000
    C530     C        0.22080    0.38160    0.28430    1.000
    C531     C        0.74450    0.99920    0.27370    1.000
    C532     C        0.09580    0.50670    0.66800    1.000
    C533     C        0.34030    0.20190    0.99720    1.000
    C534     C        0.88820    0.16180    0.66160    1.000
    C535     C        0.30500    0.35800    0.98000    1.000
    C536     C        0.37460    0.76320    0.73250    1.000
    C537     C        0.34030    0.79810    0.00280    1.000
    C538     C        0.82960    0.02920    0.63540    1.000
    C539     C        0.65600    0.68600    0.63670    1.000
    C540     C        0.39300    0.49200    0.32900    1.000
    C541     C        0.39300    0.67100    0.16300    1.000
    C542     C        0.88760    0.93350    0.35880    1.000
    C543     C        0.14590    0.64820    0.61930    1.000
    C544     C        0.65970    0.20190    0.20470    1.000
    C545     C        0.82960    0.36460    0.39380    1.000
    C546     C        0.62540    0.03070    0.76320    1.000
    C547     C        0.69500    0.62200    0.64200    1.000
    C548     C        0.71390    0.18670    0.21350    1.000
    C549     C        0.65970    0.79530    0.99720    1.000
    C550     C        0.62540    0.76320    0.73250    1.000
    C551     C        0.19070    0.42780    0.29250    1.000
    C552     C        0.19070    0.57220    0.86470    1.000
    C553     C        0.30760    0.22860    0.03200    1.000
    C554     C        0.71390    0.78650    0.81330    1.000
    C555     C        0.88760    0.57470    0.93350    1.000
    C556     C        0.11240    0.35880    0.93350    1.000
    C557     C        0.09580    0.16130    0.66800    1.000
    C558     C        0.14590    0.35180    0.97110    1.000
    C559     C        0.82960    0.02920    0.39380    1.000
    C560     C        0.77920    0.71570    0.61840    1.000
    C561     C        0.31020    0.70610    0.97030    1.000
    C562     C        0.26750    0.96730    0.73370    1.000
    C563     C        0.28070    0.28660    0.28970    1.000
    C564     C        0.14820    0.45400    0.33360    1.000
    C565     C        0.29400    0.43100    0.39310    1.000
    C566     C        0.90420    0.49330    0.16130    1.000
    C567     C        0.34030    0.79530    0.99720    1.000
    C568     C        0.64010    0.21460    0.00000    1.000
    C569     C        0.34400    0.31400    0.95070    1.000
    C570     C        0.30500    0.98000    0.62200    1.000
    C571     C        0.80380    0.90290    0.63210    1.000
    C572     C        0.19620    0.36790    0.09710    1.000
    C573     C        0.16770    0.28120    0.41500    1.000
    C574     C        0.28070    0.00310    0.28970    1.000
    C575     C        0.81520    0.04470    0.35220    1.000
    C576     C        0.90420    0.66800    0.50670    1.000
    C577     C        0.63950    0.34210    0.88750    1.000
    C578     C        0.34030    0.99720    0.20190    1.000
    C579     C        0.31020    0.73580    0.70610    1.000
    C580     C        0.17040    0.63540    0.02920    1.000
    C581     C        0.19070    0.86470    0.29250    1.000
    C582     C        0.29400    0.96210    0.39310    1.000
    C583     C        0.18480    0.64780    0.95530    1.000
    C584     C        0.88820    0.16180    0.50020    1.000
    C585     C        0.73250    0.23360    0.96730    1.000
    C586     C        0.39300    0.32900    0.83700    1.000
    C587     C        0.80380    0.90290    0.27080    1.000
    C588     C        0.28070    0.71030    0.99690    1.000
    C589     C        0.71390    0.21350    0.02680    1.000
    C590     C        0.40180    0.17280    0.17580    1.000
    C591     C        0.28610    0.18670    0.97320    1.000
    C592     C        0.80380    0.63210    0.90290    1.000
    C593     C        0.29400    0.03790    0.60690    1.000
    C594     C        0.62840    0.40170    0.09500    1.000
    C595     C        0.34400    0.63670    0.68600    1.000
    C596     C        0.87320    0.67570    0.11940    1.000
    C597     C        0.11180    0.83820    0.49980    1.000
    C598     C        0.11240    0.06650    0.42530    1.000
    C599     C        0.13530    0.56420    0.63200    1.000
    C600     C        0.62540    0.73250    0.96930    1.000
    C601     C        0.65600    0.68600    0.04930    1.000
    C602     C        0.61690    0.83760    0.00240    1.000
    C603     C        0.86470    0.63200    0.56420    1.000
    C604     C        0.75590    0.22130    0.24970    1.000
    C605     C        0.67800    0.91640    0.38540    1.000
    C606     C        0.80380    0.09710    0.72920    1.000
    C607     C        0.80380    0.72920    0.63210    1.000
    C608     C        0.64680    0.22850    0.25800    1.000
    C609     C        0.85180    0.33360    0.87960    1.000
    C610     C        0.19620    0.63210    0.72920    1.000
    C611     C        0.65970    0.79810    0.79530    1.000
    C612     C        0.38310    0.83760    0.00240    1.000
    C613     C        0.71390    0.81330    0.78650    1.000
    C614     C        0.70600    0.96210    0.56900    1.000
    C615     C        0.17040    0.97080    0.60620    1.000
    C616     C        0.14590    0.97110    0.35180    1.000
    C617     C        0.77920    0.38160    0.28430    1.000
    C618     C        0.35320    0.97050    0.22850    1.000
    C619     C        0.14590    0.97110    0.61930    1.000
    C620     C        0.69500    0.02000    0.64200    1.000
    C621     C        0.82960    0.36460    0.97080    1.000
    C622     C        0.12680    0.55630    0.88060    1.000
    C623     C        0.88820    0.49980    0.66160    1.000
    C624     C        0.83230    0.28120    0.86620    1.000
    C625     C        0.32200    0.46900    0.38540    1.000
    C626     C        0.37460    0.23680    0.96930    1.000
    C627     C        0.14820    0.87960    0.54600    1.000
    C628     C        0.16770    0.41500    0.28120    1.000
    C629     C        0.88760    0.35880    0.42530    1.000
    C630     C        0.80930    0.29250    0.86470    1.000
    C631     C        0.81520    0.95530    0.64780    1.000
    C632     C        0.87320    0.44370    0.11940    1.000
    C633     C        0.67800    0.61460    0.53100    1.000
    C634     C        0.80930    0.13530    0.70750    1.000
    C635     C        0.22080    0.71570    0.09730    1.000
    C636     C        0.29400    0.56900    0.60690    1.000
    C637     C        0.62840    0.30670    0.40170    1.000
    C638     C        0.61690    0.16480    0.00240    1.000
    C639     C        0.71390    0.78650    0.97320    1.000
    C640     C        0.71930    0.28660    0.28970    1.000
    C641     C        0.14590    0.61930    0.97110    1.000
    C642     C        0.11180    0.33840    0.83820    1.000
    C643     C        0.87320    0.44370    0.32430    1.000
    C644     C        0.28610    0.81330    0.78650    1.000
    C645     C        0.12680    0.32430    0.88060    1.000
    C646     C        0.37160    0.40170    0.09500    1.000
    C647     C        0.11180    0.50020    0.33840    1.000
    C648     C        0.64010    0.78540    0.00000    1.000
    C649     C        0.17040    0.97080    0.36460    1.000
    C650     C        0.69500    0.35800    0.98000    1.000
    C651     C        0.37160    0.90500    0.59830    1.000
    C652     C        0.65600    0.95070    0.31400    1.000
    C653     C        0.63950    0.54540    0.88750    1.000
    C654     C        0.62540    0.03070    0.26750    1.000
    C655     C        0.74450    0.00080    0.72630    1.000
    C656     C        0.64010    0.00000    0.21460    1.000
    C657     C        0.85180    0.87960    0.54600    1.000
    C658     C        0.28070    0.00310    0.71340    1.000
    C659     C        0.11240    0.64120    0.57470    1.000
    C660     C        0.66500    0.72350    0.02660    1.000
    C661     C        0.12680    0.88060    0.55630    1.000
    C662     C        0.17040    0.63540    0.60620    1.000
    C663     C        0.30500    0.62200    0.64200    1.000
    C664     C        0.88820    0.66160    0.16180    1.000
    C665     C        0.30760    0.03200    0.80340    1.000
    C666     C        0.17040    0.39380    0.02920    1.000
    C667     C        0.37160    0.09500    0.69330    1.000
    C668     C        0.73250    0.73370    0.96730    1.000
    C669     C        0.83230    0.41500    0.13380    1.000
    C670     C        0.63950    0.88750    0.34210    1.000
    C671     C        0.70600    0.43100    0.03790    1.000
    C672     C        0.18480    0.95530    0.64780    1.000
    C673     C        0.81520    0.35220    0.04470    1.000
    C674     C        0.62540    0.96930    0.23680    1.000
    C675     C        0.24410    0.77870    0.02840    1.000
    C676     C        0.71930    0.28660    0.99690    1.000
    C677     C        0.32200    0.61460    0.53100    1.000
    C678     C        0.37160    0.69330    0.09500    1.000
    C679     C        0.14820    0.54600    0.87960    1.000
    C680     C        0.09580    0.50670    0.83870    1.000
    C681     C        0.31020    0.29390    0.02970    1.000
    C682     C        0.67800    0.08360    0.61460    1.000
    C683     C        0.80930    0.57220    0.70750    1.000
    C684     C        0.14820    0.87960    0.33360    1.000
    C685     C        0.71930    0.71030    0.71340    1.000
    C686     C        0.69500    0.64200    0.02000    1.000
    C687     C        0.70600    0.03790    0.60690    1.000
    C688     C        0.34030    0.20470    0.20190    1.000
    C689     C        0.85410    0.61930    0.97110    1.000
    C690     C        0.80930    0.42780    0.29250    1.000
    C691     C        0.13530    0.43580    0.36800    1.000
    C692     C        0.35320    0.77150    0.74200    1.000
    C693     C        0.11240    0.64120    0.06650    1.000
    C694     C        0.31020    0.26420    0.97030    1.000
    C695     C        0.12680    0.32430    0.44370    1.000
    C696     C        0.60700    0.32900    0.83700    1.000
    C697     C        0.22080    0.90270    0.61840    1.000
    C698     C        0.80380    0.09710    0.36790    1.000
    C699     C        0.33500    0.30310    0.02660    1.000
    C700     C        0.18480    0.69250    0.64780    1.000
    C701     C        0.37460    0.23680    0.26750    1.000
    C702     C        0.83230    0.71880    0.13380    1.000
    C703     C        0.28070    0.71340    0.00310    1.000
    C704     C        0.85410    0.97110    0.35180    1.000
    C705     C        0.67800    0.46900    0.08360    1.000
    C706     C        0.26750    0.03270    0.26630    1.000
    C707     C        0.28070    0.71030    0.71340    1.000
    C708     C        0.18480    0.35220    0.30750    1.000
    C709     C        0.33500    0.02660    0.72350    1.000
    C710     C        0.85410    0.61930    0.64820    1.000
    C711     C        0.71390    0.18670    0.97320    1.000
    C712     C        0.40180    0.82420    0.82720    1.000
    C713     C        0.34400    0.36330    0.31400    1.000
    C714     C        0.14590    0.35180    0.38070    1.000
    C715     C        0.09580    0.49330    0.33200    1.000
    C716     C        0.71390    0.97320    0.18670    1.000
    C717     C        0.85410    0.97110    0.61930    1.000
    C718     C        0.16770    0.58500    0.86620    1.000
    C719     C        0.61690    0.16480    0.16240    1.000
    C720     C        0.37460    0.76320    0.03070    1.000
    C721     C        0.31020    0.97030    0.26420    1.000
    C722     C        0.66500    0.27650    0.30310    1.000
    C723     C        0.69500    0.37800    0.02000    1.000
    C724     C        0.29400    0.60690    0.56900    1.000
    C725     C        0.11240    0.93350    0.35880    1.000
    C726     C        0.65600    0.31400    0.36330    1.000
    C727     C        0.81520    0.35220    0.30750    1.000
    C728     C        0.33500    0.97340    0.27650    1.000
    C729     C        0.33500    0.27650    0.30310    1.000
    C730     C        0.80380    0.36790    0.09710    1.000
    C731     C        0.30760    0.80340    0.77140    1.000
    C732     C        0.37460    0.26750    0.03070    1.000
    C733     C        0.63950    0.65790    0.11250    1.000
    C734     C        0.68980    0.70610    0.97030    1.000
    C735     C        0.65970    0.79530    0.79810    1.000
    C736     C        0.30760    0.96800    0.77140    1.000
    C737     C        0.24410    0.97160    0.22130    1.000
    C738     C        0.78900    0.36660    0.04460    1.000
    C739     C        0.35320    0.02950    0.25800    1.000
    C740     C        0.32200    0.38540    0.46900    1.000
    C741     C        0.68980    0.97030    0.70610    1.000
    C742     C        0.22080    0.28430    0.38160    1.000
    C743     C        0.80380    0.27080    0.90290    1.000
    C744     C        0.12680    0.55630    0.67570    1.000
    C745     C        0.19070    0.57220    0.70750    1.000
    C746     C        0.14820    0.12040    0.66640    1.000
    C747     C        0.16770    0.41500    0.13380    1.000
    C748     C        0.61690    0.00240    0.16480    1.000
    C749     C        0.86470    0.43580    0.36800    1.000
    C750     C        0.85410    0.38070    0.02890    1.000
    C751     C        0.31020    0.29390    0.26420    1.000
    C752     C        0.77920    0.38160    0.09730    1.000
    C753     C        0.62840    0.90500    0.59830    1.000
    C754     C        0.18480    0.35220    0.04470    1.000
    C755     C        0.59820    0.99700    0.17280    1.000
    C756     C        0.16770    0.13380    0.41500    1.000
    C757     C        0.69500    0.02000    0.37800    1.000
    C758     C        0.87320    0.32430    0.88060    1.000
    C759     C        0.64680    0.25800    0.02950    1.000
    C760     C        0.28070    0.99690    0.71030    1.000
    C761     C        0.26750    0.23360    0.26630    1.000
    C762     C        0.83230    0.86620    0.28120    1.000
    C763     C        0.36050    0.54540    0.65790    1.000
    C764     C        0.14590    0.02890    0.38070    1.000
    C765     C        0.38310    0.83760    0.83520    1.000
    C766     C        0.67800    0.91640    0.53100    1.000
    C767     C        0.21100    0.95540    0.63340    1.000
    C768     C        0.19620    0.09710    0.72920    1.000
    C769     C        0.32200    0.91640    0.53100    1.000
    C770     C        0.87320    0.88060    0.55630    1.000
    C771     C        0.16770    0.58500    0.71880    1.000
    C772     C        0.18480    0.04470    0.35220    1.000
    C773     C        0.11240    0.57470    0.64120    1.000
    C774     C        0.85180    0.33360    0.45400    1.000
    C775     C        0.30760    0.80340    0.03200    1.000
    C776     C        0.35990    0.00000    0.78540    1.000
    C777     C        0.34030    0.00280    0.20470    1.000
    C778     C        0.88760    0.57470    0.64120    1.000
    C779     C        0.68980    0.02970    0.73580    1.000
    C780     C        0.22080    0.09730    0.71570    1.000
    C781     C        0.88760    0.06650    0.64120    1.000
    C782     C        0.68980    0.73580    0.02970    1.000
    C783     C        0.62840    0.40170    0.30670    1.000
    C784     C        0.12680    0.88060    0.32430    1.000
    C785     C        0.14590    0.02890    0.64820    1.000
    C786     C        0.66500    0.97340    0.69690    1.000
    C787     C        0.68980    0.73580    0.70610    1.000
    C788     C        0.13530    0.63200    0.06780    1.000
    C789     C        0.71930    0.28970    0.00310    1.000
    C790     C        0.88760    0.35880    0.93350    1.000
    C791     C        0.67800    0.53100    0.91640    1.000
    C792     C        0.40180    0.99700    0.17280    1.000
    C793     C        0.19070    0.29250    0.42780    1.000
    C794     C        0.14820    0.54600    0.66640    1.000
    C795     C        0.75590    0.97160    0.22130    1.000
    C796     C        0.88820    0.83820    0.33840    1.000
    C797     C        0.80380    0.36790    0.27080    1.000
    C798     C        0.38310    0.00240    0.83760    1.000
    C799     C        0.74450    0.27370    0.27450    1.000
    C800     C        0.81520    0.95530    0.30750    1.000
    C801     C        0.81520    0.30750    0.95530    1.000
    C802     C        0.64680    0.02950    0.25800    1.000
    C803     C        0.37460    0.03070    0.76320    1.000
    C804     C        0.32200    0.53100    0.61460    1.000
    C805     C        0.64680    0.77150    0.74200    1.000
    C806     C        0.25550    0.72550    0.72630    1.000
    C807     C        0.63950    0.65790    0.54540    1.000
    C808     C        0.24410    0.97160    0.75030    1.000
    C809     C        0.64010    0.21460    0.21460    1.000
    C810     C        0.73250    0.76640    0.03270    1.000
    C811     C        0.65970    0.00280    0.20470    1.000
    C812     C        0.24410    0.22130    0.24970    1.000
    C813     C        0.73250    0.26630    0.23360    1.000
    C814     C        0.60700    0.83700    0.50800    1.000
    C815     C        0.88820    0.33840    0.83820    1.000
    C816     C        0.88820    0.33840    0.50020    1.000
    N1       N        0.78850    0.69110    0.00000    1.000
    N2       N        0.78850    0.30890    0.30890    1.000
    N3       N        0.76000    0.67550    0.00000    1.000
    N4       N        0.24000    0.00000    0.67550    1.000
    N5       N        0.21150    0.30890    0.30890    1.000
    N6       N        0.76000    0.67550    0.67550    1.000
    N7       N        0.24000    0.67550    0.67550    1.000
    N8       N        0.76000    0.32450    0.00000    1.000
    N9       N        0.78850    0.00000    0.69110    1.000
    N10      N        0.21150    0.69110    0.00000    1.000
    N11      N        0.76000    0.32450    0.32450    1.000
    N12      N        0.21150    0.30890    0.00000    1.000
    N13      N        0.76000    0.00000    0.67550    1.000
    N14      N        0.78850    0.69110    0.69110    1.000
    N15      N        0.24000    0.67550    0.00000    1.000
    N16      N        0.24000    0.00000    0.32450    1.000
    N17      N        0.78850    0.30890    0.00000    1.000
    N18      N        0.24000    0.32450    0.00000    1.000
    N19      N        0.24000    0.32450    0.32450    1.000
    N20      N        0.21150    0.69110    0.69110    1.000
    N21      N        0.78850    0.00000    0.30890    1.000
    N22      N        0.21150    0.00000    0.69110    1.000
    N23      N        0.76000    0.00000    0.32450    1.000
    N24      N        0.21150    0.00000    0.30890    1.000
    O1       O        0.50000    0.66090    0.42340    1.000
    O2       O        0.57280    0.81290    0.29290    1.000
    O3       O        0.29900    0.73000    0.36500    1.000
    O4       O        0.93490    0.33333    0.66666    1.000
    O5       O        0.39160    0.84040    0.87400    1.000
    O6       O        0.63000    0.85310    0.97070    1.000
    O7       O        0.92970    0.47900    0.85440    1.000
    O8       O        0.50000    0.00650    0.91120    1.000
    O9       O        0.00000    0.42950    0.67330    1.000
    O10      O        0.50000    0.09530    0.00650    1.000
    O11      O        0.41940    0.81850    0.85960    1.000
    O12      O        0.70100    0.73000    0.36500    1.000
    O13      O        0.92970    0.85440    0.37540    1.000
    O14      O        0.19420    0.70015    0.40030    1.000
    O15      O        0.57280    0.52000    0.70710    1.000
    O16      O        0.07030    0.52100    0.14560    1.000
    O17      O        0.60840    0.03360    0.87400    1.000
    O18      O        0.19420    0.29985    0.70015    1.000
    O19      O        0.19420    0.59970    0.29985    1.000
    O20      O        0.88300    0.48930    0.69800    1.000
    O21      O        0.39160    0.12600    0.96640    1.000
    O22      O        0.09750    0.61941    0.23882    1.000
    O23      O        0.50000    0.23750    0.57660    1.000
    O24      O        0.19420    0.70015    0.29985    1.000
    O25      O        0.60500    0.71300    0.28700    1.000
    O26      O        0.29900    0.63500    0.27000    1.000
    O27      O        0.60500    0.57400    0.28700    1.000
    O28      O        0.00000    0.32670    0.75620    1.000
    O29      O        0.37000    0.14690    0.02930    1.000
    O30      O        0.90250    0.76118    0.38059    1.000
    O31      O        0.42720    0.81290    0.52000    1.000
    O32      O        0.63000    0.88240    0.85310    1.000
    O33      O        0.39160    0.96640    0.84040    1.000
    O34      O        0.00000    0.75620    0.42950    1.000
    O35      O        0.42720    0.29290    0.81290    1.000
    O36      O        0.42720    0.81290    0.29290    1.000
    O37      O        0.37000    0.88240    0.85310    1.000
    O38      O        0.61900    0.17910    0.54290    1.000
    O39      O        0.39160    0.15960    0.03360    1.000
    O40      O        0.60840    0.12600    0.15960    1.000
    O41      O        0.11700    0.69800    0.48930    1.000
    O42      O        0.43900    0.66667    0.33334    1.000
    O43      O        0.09750    0.38059    0.76118    1.000
    O44      O        0.11700    0.20870    0.69800    1.000
    O45      O        0.50000    0.76250    0.42340    1.000
    O46      O        0.29900    0.63500    0.36500    1.000
    O47      O        0.43900    0.33333    0.66666    1.000
    O48      O        0.60500    0.28700    0.57400    1.000
    O49      O        0.39160    0.03360    0.87400    1.000
    O50      O        0.50000    0.33910    0.76250    1.000
    O51      O        0.90250    0.61941    0.38059    1.000
    O52      O        0.11700    0.20870    0.51070    1.000
    O53      O        0.06510    0.33333    0.66666    1.000
    O54      O        0.41940    0.81850    0.95890    1.000
    O55      O        0.38100    0.63620    0.45710    1.000
    O56      O        0.39160    0.15960    0.12600    1.000
    O57      O        0.50000    0.76250    0.33910    1.000
    O58      O        0.37000    0.14690    0.11760    1.000
    O59      O        0.57280    0.81290    0.52000    1.000
    O60      O        0.41940    0.04110    0.18150    1.000
    O61      O        0.58060    0.85960    0.81850    1.000
    O62      O        0.92970    0.52100    0.37540    1.000
    O63      O        0.63000    0.11760    0.14690    1.000
    O64      O        0.58060    0.85960    0.04110    1.000
    O65      O        0.70100    0.27000    0.63500    1.000
    O66      O        0.43750    0.85000    0.80950    1.000
    O67      O        0.58060    0.81850    0.95890    1.000
    O68      O        0.50000    0.57660    0.33910    1.000
    O69      O        0.60840    0.15960    0.12600    1.000
    O70      O        0.41940    0.95890    0.81850    1.000
    O71      O        0.61900    0.17910    0.63620    1.000
    O72      O        0.92970    0.62460    0.14560    1.000
    O73      O        0.60500    0.28700    0.71300    1.000
    O74      O        0.39500    0.42600    0.71300    1.000
    O75      O        0.58060    0.95890    0.14040    1.000
    O76      O        0.50000    0.42340    0.76250    1.000
    O77      O        0.42720    0.29290    0.48000    1.000
    O78      O        0.50000    0.91120    0.00650    1.000
    O79      O        0.07030    0.14560    0.52100    1.000
    O80      O        0.60840    0.87400    0.84040    1.000
    O81      O        0.09750    0.61941    0.38059    1.000
    O82      O        0.60840    0.96640    0.12600    1.000
    O83      O        0.92970    0.62460    0.47900    1.000
    O84      O        0.50000    0.57660    0.23750    1.000
    O85      O        0.38100    0.82090    0.36380    1.000
    O86      O        0.07030    0.47900    0.85440    1.000
    O87      O        0.61900    0.82090    0.45710    1.000
    O88      O        0.39160    0.03360    0.15960    1.000
    O89      O        0.80580    0.29985    0.59970    1.000
    O90      O        0.88300    0.20870    0.51070    1.000
    O91      O        0.43750    0.80950    0.95950    1.000
    O92      O        0.88300    0.20870    0.69800    1.000
    O93      O        0.43750    0.85000    0.04050    1.000
    O94      O        0.70100    0.63500    0.36500    1.000
    O95      O        0.37000    0.11760    0.14690    1.000
    O96      O        0.42720    0.48000    0.29290    1.000
    O97      O        0.90250    0.23882    0.61941    1.000
    O98      O        0.92970    0.37540    0.52100    1.000
    O99      O        0.39160    0.84040    0.96640    1.000
    O100     O        0.41940    0.85960    0.81850    1.000
    O101     O        0.38100    0.54290    0.17910    1.000
    O102     O        0.61900    0.36380    0.82090    1.000
    O103     O        0.39500    0.71300    0.28700    1.000
    O104     O        0.56250    0.15000    0.95950    1.000
    O105     O        0.61900    0.82090    0.36380    1.000
    O106     O        0.00000    0.24380    0.67330    1.000
    O107     O        0.39500    0.28700    0.71300    1.000
    O108     O        0.57280    0.18710    0.70710    1.000
    O109     O        0.38100    0.63620    0.17910    1.000
    O110     O        0.41940    0.95890    0.14040    1.000
    O111     O        0.38100    0.36380    0.54290    1.000
    O112     O        0.07030    0.37540    0.85440    1.000
    O113     O        0.37000    0.97070    0.11760    1.000
    O114     O        0.43750    0.80950    0.85000    1.000
    O115     O        0.19420    0.40030    0.70015    1.000
    O116     O        0.07030    0.47900    0.62460    1.000
    O117     O        0.43750    0.95950    0.15000    1.000
    O118     O        0.37000    0.11760    0.97070    1.000
    O119     O        0.57280    0.29290    0.81290    1.000
    O120     O        0.39500    0.57400    0.28700    1.000
    O121     O        0.58060    0.04110    0.18150    1.000
    O122     O        0.56100    0.33333    0.66666    1.000
    O123     O        0.50000    0.09530    0.08880    1.000
    O124     O        0.93490    0.66667    0.33334    1.000
    O125     O        0.63000    0.02930    0.88240    1.000
    O126     O        0.19420    0.29985    0.59970    1.000
    O127     O        0.00000    0.42950    0.75620    1.000
    O128     O        0.92970    0.14560    0.62460    1.000
    O129     O        0.56250    0.19050    0.04050    1.000
    O130     O        0.43750    0.15000    0.19050    1.000
    O131     O        0.58060    0.18150    0.04110    1.000
    O132     O        0.42720    0.70710    0.18710    1.000
    O133     O        0.70100    0.36500    0.73000    1.000
    O134     O        0.60840    0.12600    0.96640    1.000
    O135     O        0.58060    0.04110    0.85960    1.000
    O136     O        0.38100    0.17910    0.63620    1.000
    O137     O        0.60500    0.42600    0.71300    1.000
    O138     O        0.56250    0.95950    0.80950    1.000
    O139     O        0.39160    0.96640    0.12600    1.000
    O140     O        0.39160    0.87400    0.03360    1.000
    O141     O        0.39500    0.71300    0.42600    1.000
    O142     O        0.42720    0.18710    0.48000    1.000
    O143     O        0.61900    0.63620    0.45710    1.000
    O144     O        0.57280    0.48000    0.18710    1.000
    O145     O        0.38100    0.82090    0.45710    1.000
    O146     O        0.00000    0.67330    0.24380    1.000
    O147     O        0.39500    0.28700    0.57400    1.000
    O148     O        0.63000    0.88240    0.02930    1.000
    O149     O        0.50000    0.08880    0.09530    1.000
    O150     O        0.50000    0.00650    0.09530    1.000
    O151     O        0.56250    0.80950    0.85000    1.000
    O152     O        0.43750    0.04050    0.19050    1.000
    O153     O        0.00000    0.57050    0.24380    1.000
    O154     O        0.56250    0.95950    0.15000    1.000
    O155     O        0.58060    0.95890    0.81850    1.000
    O156     O        0.50000    0.23750    0.66090    1.000
    O157     O        0.39160    0.12600    0.15960    1.000
    O158     O        0.60840    0.15960    0.03360    1.000
    O159     O        0.43750    0.95950    0.80950    1.000
    O160     O        0.90250    0.61941    0.23882    1.000
    O161     O        0.38100    0.45710    0.63620    1.000
    O162     O        0.07030    0.52100    0.37540    1.000
    O163     O        0.50000    0.99350    0.90470    1.000
    O164     O        0.00000    0.75620    0.32670    1.000
    O165     O        0.57280    0.29290    0.48000    1.000
    O166     O        0.88300    0.30200    0.79130    1.000
    O167     O        0.56100    0.66667    0.33334    1.000
    O168     O        0.58060    0.81850    0.85960    1.000
    O169     O        0.57280    0.18710    0.48000    1.000
    O170     O        0.57280    0.52000    0.81290    1.000
    O171     O        0.56250    0.19050    0.15000    1.000
    O172     O        0.06510    0.66667    0.33334    1.000
    O173     O        0.88300    0.79130    0.48930    1.000
    O174     O        0.37000    0.97070    0.85310    1.000
    O175     O        0.42720    0.52000    0.70710    1.000
    O176     O        0.07030    0.62460    0.47900    1.000
    O177     O        0.80580    0.40030    0.70015    1.000
    O178     O        0.57280    0.48000    0.29290    1.000
    O179     O        0.41940    0.85960    0.04110    1.000
    O180     O        0.88300    0.69800    0.48930    1.000
    O181     O        0.07030    0.85440    0.37540    1.000
    O182     O        0.80580    0.59970    0.29985    1.000
    O183     O        0.50000    0.99350    0.08880    1.000
    O184     O        0.60840    0.84040    0.87400    1.000
    O185     O        0.09750    0.76118    0.38059    1.000
    O186     O        0.56250    0.04050    0.19050    1.000
    O187     O        0.63000    0.97070    0.11760    1.000
    O188     O        0.61900    0.45710    0.63620    1.000
    O189     O        0.43750    0.15000    0.95950    1.000
    O190     O        0.07030    0.62460    0.14560    1.000
    O191     O        0.90250    0.38059    0.76118    1.000
    O192     O        0.42720    0.48000    0.18710    1.000
    O193     O        0.41940    0.14040    0.95890    1.000
    O194     O        0.00000    0.32670    0.57050    1.000
    O195     O        0.50000    0.08880    0.99350    1.000
    O196     O        0.70100    0.36500    0.63500    1.000
    O197     O        0.88300    0.51070    0.20870    1.000
    O198     O        0.41940    0.18150    0.14040    1.000
    O199     O        0.50000    0.90470    0.99350    1.000
    O200     O        0.11700    0.48930    0.79130    1.000
    O201     O        0.61900    0.54290    0.17910    1.000
    O202     O        0.50000    0.66090    0.23750    1.000
    O203     O        0.11700    0.48930    0.69800    1.000
    O204     O        0.50000    0.33910    0.57660    1.000
    O205     O        0.56250    0.85000    0.04050    1.000
    O206     O        0.43750    0.19050    0.15000    1.000
    O207     O        0.63000    0.14690    0.11760    1.000
    O208     O        0.92970    0.47900    0.62460    1.000
    O209     O        0.61900    0.63620    0.17910    1.000
    O210     O        0.11700    0.30200    0.51070    1.000
    O211     O        0.37000    0.88240    0.02930    1.000
    O212     O        0.63000    0.02930    0.14690    1.000
    O213     O        0.58060    0.14040    0.18150    1.000
    O214     O        0.88300    0.69800    0.20870    1.000
    O215     O        0.88300    0.79130    0.30200    1.000
    O216     O        0.37000    0.02930    0.14690    1.000
    O217     O        0.60840    0.96640    0.84040    1.000
    O218     O        0.09750    0.23882    0.61941    1.000
    O219     O        0.11700    0.51070    0.30200    1.000
    O220     O        0.42720    0.18710    0.70710    1.000
    O221     O        0.29900    0.36500    0.73000    1.000
    O222     O        0.00000    0.24380    0.57050    1.000
    O223     O        0.50000    0.90470    0.91120    1.000
    O224     O        0.63000    0.11760    0.97070    1.000
    O225     O        0.60500    0.71300    0.42600    1.000
    O226     O        0.80580    0.70015    0.29985    1.000
    O227     O        0.80580    0.29985    0.70015    1.000
    O228     O        0.90250    0.38059    0.61941    1.000
    O229     O        0.29900    0.27000    0.63500    1.000
    O230     O        0.58060    0.14040    0.95890    1.000
    O231     O        0.63000    0.85310    0.88240    1.000
    O232     O        0.07030    0.37540    0.52100    1.000
    O233     O        0.50000    0.42340    0.66090    1.000
    O234     O        0.39160    0.87400    0.84040    1.000
    O235     O        0.37000    0.85310    0.88240    1.000
    O236     O        0.38100    0.54290    0.36380    1.000
    O237     O        0.38100    0.36380    0.82090    1.000
    O238     O        0.60840    0.03360    0.15960    1.000
    O239     O        0.56250    0.85000    0.80950    1.000
    O240     O        0.11700    0.79130    0.48930    1.000
    O241     O        0.41940    0.14040    0.18150    1.000
    O242     O        0.11700    0.30200    0.79130    1.000
    O243     O        0.50000    0.91120    0.90470    1.000
    O244     O        0.92970    0.52100    0.14560    1.000
    O245     O        0.42720    0.70710    0.52000    1.000
    O246     O        0.60840    0.84040    0.96640    1.000
    O247     O        0.80580    0.70015    0.40030    1.000
    O248     O        0.57280    0.70710    0.18710    1.000
    O249     O        0.92970    0.37540    0.85440    1.000
    O250     O        0.11700    0.69800    0.20870    1.000
    O251     O        0.61900    0.54290    0.36380    1.000
    O252     O        0.61900    0.45710    0.82090    1.000
    O253     O        0.43750    0.19050    0.04050    1.000
    O254     O        0.56250    0.80950    0.95950    1.000
    O255     O        0.88300    0.30200    0.51070    1.000
    O256     O        0.29900    0.36500    0.63500    1.000
    O257     O        0.61900    0.36380    0.54290    1.000
    O258     O        0.38100    0.17910    0.54290    1.000
    O259     O        0.92970    0.14560    0.52100    1.000
    O260     O        0.58060    0.18150    0.14040    1.000
    O261     O        0.56250    0.15000    0.19050    1.000
    O262     O        0.88300    0.51070    0.30200    1.000
    O263     O        0.63000    0.97070    0.85310    1.000
    O264     O        0.07030    0.85440    0.47900    1.000
    O265     O        0.37000    0.02930    0.88240    1.000
    O266     O        0.07030    0.14560    0.62460    1.000
    O267     O        0.00000    0.67330    0.42950    1.000
    O268     O        0.11700    0.79130    0.30200    1.000
    O269     O        0.38100    0.45710    0.82090    1.000
    O270     O        0.88300    0.48930    0.79130    1.000
    O271     O        0.42720    0.52000    0.81290    1.000
    O272     O        0.60840    0.87400    0.03360    1.000
    O273     O        0.37000    0.85310    0.97070    1.000
    O274     O        0.11700    0.51070    0.20870    1.000
    O275     O        0.56250    0.04050    0.85000    1.000
    O276     O        0.00000    0.57050    0.32670    1.000
    O277     O        0.41940    0.04110    0.85960    1.000
    O278     O        0.63000    0.14690    0.02930    1.000
    O279     O        0.57280    0.70710    0.52000    1.000
    O280     O        0.92970    0.85440    0.47900    1.000
    O281     O        0.70100    0.63500    0.27000    1.000
    O282     O        0.09750    0.38059    0.61941    1.000
    O283     O        0.43750    0.04050    0.85000    1.000
    O284     O        0.41940    0.18150    0.04110    1.000
    F1       F        0.59300    0.73500    0.61200    1.000
    F2       F        0.69000    0.41800    0.51920    1.000
    F3       F        0.31000    0.51920    0.41800    1.000
    F4       F        0.69000    0.10120    0.51920    1.000
    F5       F        0.40700    0.26500    0.38800    1.000
    F6       F        0.31000    0.51920    0.10120    1.000
    F7       F        0.31000    0.48080    0.89880    1.000
    F8       F        0.40700    0.38800    0.26500    1.000
    F9       F        0.59300    0.87700    0.26500    1.000
    F10      F        0.59300    0.73500    0.12300    1.000
    F11      F        0.40700    0.26500    0.87700    1.000
    F12      F        0.59300    0.12300    0.73500    1.000
    F13      F        0.31000    0.58200    0.10120    1.000
    F14      F        0.69000    0.10120    0.58200    1.000
    F15      F        0.40700    0.12300    0.38800    1.000
    F16      F        0.59300    0.26500    0.38800    1.000
    F17      F        0.59300    0.87700    0.61200    1.000
    F18      F        0.31000    0.89880    0.41800    1.000
    F19      F        0.31000    0.41800    0.89880    1.000
    F20      F        0.31000    0.89880    0.48080    1.000
    F21      F        0.59300    0.38800    0.26500    1.000
    F22      F        0.31000    0.48080    0.58200    1.000
    F23      F        0.69000    0.58200    0.10120    1.000
    F24      F        0.69000    0.58200    0.48080    1.000
    F25      F        0.59300    0.26500    0.87700    1.000
    F26      F        0.31000    0.41800    0.51920    1.000
    F27      F        0.59300    0.61200    0.87700    1.000
    F28      F        0.69000    0.89880    0.41800    1.000
    F29      F        0.69000    0.51920    0.41800    1.000
    F30      F        0.69000    0.51920    0.10120    1.000
    F31      F        0.59300    0.38800    0.12300    1.000
    F32      F        0.69000    0.48080    0.58200    1.000
    F33      F        0.40700    0.73500    0.61200    1.000
    F34      F        0.31000    0.10120    0.51920    1.000
    F35      F        0.40700    0.61200    0.87700    1.000
    F36      F        0.40700    0.87700    0.61200    1.000
    F37      F        0.40700    0.61200    0.73500    1.000
    F38      F        0.31000    0.10120    0.58200    1.000
    F39      F        0.59300    0.12300    0.38800    1.000
    F40      F        0.59300    0.61200    0.73500    1.000
    F41      F        0.69000    0.48080    0.89880    1.000
    F42      F        0.69000    0.89880    0.48080    1.000
    F43      F        0.40700    0.87700    0.26500    1.000
    F44      F        0.40700    0.38800    0.12300    1.000
    F45      F        0.69000    0.41800    0.89880    1.000
    F46      F        0.40700    0.12300    0.73500    1.000
    F47      F        0.40700    0.73500    0.12300    1.000
    F48      F        0.31000    0.58200    0.48080    1.000
