# CIF file generated by openbabel 3.1.0, see https://openbabel.org
data_I
_chemical_name_common 'image0'
_cell_length_a 15.954
_cell_length_b 19.226
_cell_length_c 16.734
_cell_angle_alpha 90
_cell_angle_beta 96.828
_cell_angle_gamma 90
_space_group_name_H-M_alt 'P 1'
_space_group_name_Hall 'P 1'
loop_
    _symmetry_equiv_pos_as_xyz
    x,y,z
loop_
    _atom_site_label
    _atom_site_type_symbol
    _atom_site_fract_x
    _atom_site_fract_y
    _atom_site_fract_z
    _atom_site_occupancy
    Zn1      Zn       0.53449    0.42732    0.53330    1.000
    Zn2      Zn       0.33372    0.43102    0.50184    1.000
    O1       O        0.48610    0.35740    0.60840    1.000
    O2       O        0.34540    0.36610    0.59610    1.000
    O3       O        0.48870    0.12420    0.92680    1.000
    O4       O        0.34960    0.13490    0.91530    1.000
    O5       O        0.21490    0.45200    0.47500    1.000
    O6       O        0.22310    0.50010    0.59510    1.000
    O7       O        0.42730    0.49431    0.53700    1.000
    N1       N        0.57680    0.19760    0.82910    1.000
    H1       H        0.57720    0.15800    0.85300    1.000
    N2       N        0.26060    0.30150    0.70040    1.000
    H2       H        0.26210    0.33810    0.67100    1.000
    N3       N        0.91780    0.46550    0.34720    1.000
    H3       H        0.86820    0.44790    0.34690    1.000
    C1       C        0.72670    0.18520    0.84270    1.000
    H4       H        0.71920    0.13810    0.85190    1.000
    C2       C        0.80740    0.21110    0.84540    1.000
    H5       H        0.85390    0.18170    0.85460    1.000
    C3       C        0.81770    0.28080    0.83410    1.000
    H6       H        0.87170    0.29950    0.83680    1.000
    C4       C        0.74710    0.32420    0.81850    1.000
    H7       H        0.75530    0.37130    0.80910    1.000
    C5       C        0.66540    0.29920    0.81650    1.000
    H8       H        0.61920    0.32890    0.80860    1.000
    C6       C        0.65500    0.22830    0.82650    1.000
    C7       C        0.49670    0.22270    0.79800    1.000
    C8       C        0.42190    0.20210    0.82670    1.000
    C9       C        0.34530    0.22680    0.79160    1.000
    H9       H        0.29630    0.21170    0.81120    1.000
    C10      C        0.33890    0.27240    0.72950    1.000
    C11      C        0.41360    0.29390    0.69800    1.000
    C12      C        0.49010    0.26840    0.73350    1.000
    H10      H        0.53920    0.28250    0.71320    1.000
    C13      C        0.42150    0.14910    0.89620    1.000
    C14      C        0.41520    0.34280    0.62910    1.000
    C15      C        0.17990    0.27810    0.71340    1.000
    C16      C        0.11660    0.32300    0.72120    1.000
    H11      H        0.12710    0.37050    0.72110    1.000
    C17      C        0.03620    0.29930    0.72940    1.000
    H12      H        0.99300    0.33090    0.73410    1.000
    C18      C        0.02010    0.23010    0.73070    1.000
    H13      H        0.96640    0.21450    0.73800    1.000
    C19      C        0.08220    0.18370    0.72150    1.000
    H14      H        0.07100    0.13620    0.72130    1.000
    C20      C        0.16070    0.20710    0.71260    1.000
    H15      H        0.20300    0.17500    0.70570    1.000
    C21      C        0.18020    0.48110    0.53360    1.000
    C22      C        0.08870    0.48980    0.51890    1.000
    C23      C        0.04530    0.47460    0.44450    1.000
    H16      H        0.07680    0.45680    0.40590    1.000
    C24      C        0.95910    0.48340    0.42160    1.000
    C25      C        0.94750    0.47280    0.27160    1.000
    C26      C        0.89560    0.44120    0.20730    1.000
    H17      H        0.84740    0.41660    0.21620    1.000
    C27      C        0.99780    0.49060    0.12210    1.000
    H18      H        0.01480    0.49730    0.07140    1.000
    C28      C        0.92030    0.44860    0.12740    1.000
    H19      H        0.88980    0.42850    0.08240    1.000
    C29      C        0.04300    0.51820    0.18280    1.000
    H20      H        0.09130    0.54330    0.17540    1.000
    C30      C        0.01860    0.51020    0.26090    1.000
    H21      H        0.05080    0.53020    0.30500    1.000
    Zn3      Zn       0.46551    0.92732    0.96670    1.000
    Zn4      Zn       0.66628    0.93102    0.99816    1.000
    O8       O        0.51390    0.85740    0.89160    1.000
    O9       O        0.65460    0.86610    0.90390    1.000
    O10      O        0.51130    0.62420    0.57320    1.000
    O11      O        0.65040    0.63490    0.58470    1.000
    O12      O        0.78510    0.95200    0.02500    1.000
    O13      O        0.77690    0.00010    0.90490    1.000
    O14      O        0.57270    0.99431    0.96300    1.000
    N4       N        0.42320    0.69760    0.67090    1.000
    H22      H        0.42280    0.65800    0.64700    1.000
    N5       N        0.73940    0.80150    0.79960    1.000
    H23      H        0.73790    0.83810    0.82900    1.000
    N6       N        0.08220    0.96550    0.15280    1.000
    H24      H        0.13180    0.94790    0.15310    1.000
    C31      C        0.27330    0.68520    0.65730    1.000
    H25      H        0.28080    0.63810    0.64810    1.000
    C32      C        0.19260    0.71110    0.65460    1.000
    H26      H        0.14610    0.68170    0.64540    1.000
    C33      C        0.18230    0.78080    0.66590    1.000
    H27      H        0.12830    0.79950    0.66320    1.000
    C34      C        0.25290    0.82420    0.68150    1.000
    H28      H        0.24470    0.87130    0.69090    1.000
    C35      C        0.33460    0.79920    0.68350    1.000
    H29      H        0.38080    0.82890    0.69140    1.000
    C36      C        0.34500    0.72830    0.67350    1.000
    C37      C        0.50330    0.72270    0.70200    1.000
    C38      C        0.57810    0.70210    0.67330    1.000
    C39      C        0.65470    0.72680    0.70840    1.000
    H30      H        0.70370    0.71170    0.68880    1.000
    C40      C        0.66110    0.77240    0.77050    1.000
    C41      C        0.58640    0.79390    0.80200    1.000
    C42      C        0.50990    0.76840    0.76650    1.000
    H31      H        0.46080    0.78250    0.78680    1.000
    C43      C        0.57850    0.64910    0.60380    1.000
    C44      C        0.58480    0.84280    0.87090    1.000
    C45      C        0.82010    0.77810    0.78660    1.000
    C46      C        0.88340    0.82300    0.77880    1.000
    H32      H        0.87290    0.87050    0.77890    1.000
    C47      C        0.96380    0.79930    0.77060    1.000
    H33      H        0.00700    0.83090    0.76590    1.000
    C48      C        0.97990    0.73010    0.76930    1.000
    H34      H        0.03360    0.71450    0.76200    1.000
    C49      C        0.91780    0.68370    0.77850    1.000
    H35      H        0.92900    0.63620    0.77870    1.000
    C50      C        0.83930    0.70710    0.78740    1.000
    H36      H        0.79700    0.67500    0.79430    1.000
    C51      C        0.81980    0.98110    0.96640    1.000
    C52      C        0.91130    0.98980    0.98110    1.000
    C53      C        0.95470    0.97460    0.05550    1.000
    H37      H        0.92320    0.95680    0.09410    1.000
    C54      C        0.04090    0.98340    0.07840    1.000
    C55      C        0.05250    0.97280    0.22840    1.000
    C56      C        0.10440    0.94120    0.29270    1.000
    H38      H        0.15260    0.91660    0.28380    1.000
    C57      C        0.00220    0.99060    0.37790    1.000
    H39      H        0.98520    0.99730    0.42860    1.000
    C58      C        0.07970    0.94860    0.37260    1.000
    H40      H        0.11020    0.92850    0.41760    1.000
    C59      C        0.95700    0.01820    0.31720    1.000
    H41      H        0.90870    0.04330    0.32460    1.000
    C60      C        0.98140    0.01020    0.23910    1.000
    H42      H        0.94920    0.03020    0.19500    1.000
    Zn5      Zn       0.46551    0.57268    0.46670    1.000
    Zn6      Zn       0.66628    0.56898    0.49816    1.000
    O15      O        0.51390    0.64260    0.39160    1.000
    O16      O        0.65460    0.63390    0.40390    1.000
    O17      O        0.51130    0.87580    0.07320    1.000
    O18      O        0.65040    0.86510    0.08470    1.000
    O19      O        0.78510    0.54800    0.52500    1.000
    O20      O        0.77690    0.49990    0.40490    1.000
    O21      O        0.57270    0.50569    0.46300    1.000
    N7       N        0.42320    0.80240    0.17090    1.000
    H43      H        0.42280    0.84200    0.14700    1.000
    N8       N        0.73940    0.69850    0.29960    1.000
    H44      H        0.73790    0.66190    0.32900    1.000
    N9       N        0.08220    0.53450    0.65280    1.000
    H45      H        0.13180    0.55210    0.65310    1.000
    C61      C        0.27330    0.81480    0.15730    1.000
    H46      H        0.28080    0.86190    0.14810    1.000
    C62      C        0.19260    0.78890    0.15460    1.000
    H47      H        0.14610    0.81830    0.14540    1.000
    C63      C        0.18230    0.71920    0.16590    1.000
    H48      H        0.12830    0.70050    0.16320    1.000
    C64      C        0.25290    0.67580    0.18150    1.000
    H49      H        0.24470    0.62870    0.19090    1.000
    C65      C        0.33460    0.70080    0.18350    1.000
    H50      H        0.38080    0.67110    0.19140    1.000
    C66      C        0.34500    0.77170    0.17350    1.000
    C67      C        0.50330    0.77730    0.20200    1.000
    C68      C        0.57810    0.79790    0.17330    1.000
    C69      C        0.65470    0.77320    0.20840    1.000
    H51      H        0.70370    0.78830    0.18880    1.000
    C70      C        0.66110    0.72760    0.27050    1.000
    C71      C        0.58640    0.70610    0.30200    1.000
    C72      C        0.50990    0.73160    0.26650    1.000
    H52      H        0.46080    0.71750    0.28680    1.000
    C73      C        0.57850    0.85090    0.10380    1.000
    C74      C        0.58480    0.65720    0.37090    1.000
    C75      C        0.82010    0.72190    0.28660    1.000
    C76      C        0.88340    0.67700    0.27880    1.000
    H53      H        0.87290    0.62950    0.27890    1.000
    C77      C        0.96380    0.70070    0.27060    1.000
    H54      H        0.00700    0.66910    0.26590    1.000
    C78      C        0.97990    0.76990    0.26930    1.000
    H55      H        0.03360    0.78550    0.26200    1.000
    C79      C        0.91780    0.81630    0.27850    1.000
    H56      H        0.92900    0.86380    0.27870    1.000
    C80      C        0.83930    0.79290    0.28740    1.000
    H57      H        0.79700    0.82500    0.29430    1.000
    C81      C        0.81980    0.51890    0.46640    1.000
    C82      C        0.91130    0.51020    0.48110    1.000
    C83      C        0.95470    0.52540    0.55550    1.000
    H58      H        0.92320    0.54320    0.59410    1.000
    C84      C        0.04090    0.51660    0.57840    1.000
    C85      C        0.05250    0.52720    0.72840    1.000
    C86      C        0.10440    0.55880    0.79270    1.000
    H59      H        0.15260    0.58340    0.78380    1.000
    C87      C        0.00220    0.50940    0.87790    1.000
    H60      H        0.98520    0.50270    0.92860    1.000
    C88      C        0.07970    0.55140    0.87260    1.000
    H61      H        0.11020    0.57150    0.91760    1.000
    C89      C        0.95700    0.48180    0.81720    1.000
    H62      H        0.90870    0.45670    0.82460    1.000
    C90      C        0.98140    0.48980    0.73910    1.000
    H63      H        0.94920    0.46980    0.69500    1.000
    Zn7      Zn       0.53449    0.07268    0.03330    1.000
    Zn8      Zn       0.33372    0.06898    0.00184    1.000
    O22      O        0.48610    0.14260    0.10840    1.000
    O23      O        0.34540    0.13390    0.09610    1.000
    O24      O        0.48870    0.37580    0.42680    1.000
    O25      O        0.34960    0.36510    0.41530    1.000
    O26      O        0.21490    0.04800    0.97500    1.000
    O27      O        0.22310    0.99990    0.09510    1.000
    O28      O        0.42730    0.00569    0.03700    1.000
    N10      N        0.57680    0.30240    0.32910    1.000
    H64      H        0.57720    0.34200    0.35300    1.000
    N11      N        0.26060    0.19850    0.20040    1.000
    H65      H        0.26210    0.16190    0.17100    1.000
    N12      N        0.91780    0.03450    0.84720    1.000
    H66      H        0.86820    0.05210    0.84690    1.000
    C91      C        0.72670    0.31480    0.34270    1.000
    H67      H        0.71920    0.36190    0.35190    1.000
    C92      C        0.80740    0.28890    0.34540    1.000
    H68      H        0.85390    0.31830    0.35460    1.000
    C93      C        0.81770    0.21920    0.33410    1.000
    H69      H        0.87170    0.20050    0.33680    1.000
    C94      C        0.74710    0.17580    0.31850    1.000
    H70      H        0.75530    0.12870    0.30910    1.000
    C95      C        0.66540    0.20080    0.31650    1.000
    H71      H        0.61920    0.17110    0.30860    1.000
    C96      C        0.65500    0.27170    0.32650    1.000
    C97      C        0.49670    0.27730    0.29800    1.000
    C98      C        0.42190    0.29790    0.32670    1.000
    C99      C        0.34530    0.27320    0.29160    1.000
    H72      H        0.29630    0.28830    0.31120    1.000
    C100     C        0.33890    0.22760    0.22950    1.000
    C101     C        0.41360    0.20610    0.19800    1.000
    C102     C        0.49010    0.23160    0.23350    1.000
    H73      H        0.53920    0.21750    0.21320    1.000
    C103     C        0.42150    0.35090    0.39620    1.000
    C104     C        0.41520    0.15720    0.12910    1.000
    C105     C        0.17990    0.22190    0.21340    1.000
    C106     C        0.11660    0.17700    0.22120    1.000
    H74      H        0.12710    0.12950    0.22110    1.000
    C107     C        0.03620    0.20070    0.22940    1.000
    H75      H        0.99300    0.16910    0.23410    1.000
    C108     C        0.02010    0.26990    0.23070    1.000
    H76      H        0.96640    0.28550    0.23800    1.000
    C109     C        0.08220    0.31630    0.22150    1.000
    H77      H        0.07100    0.36380    0.22130    1.000
    C110     C        0.16070    0.29290    0.21260    1.000
    H78      H        0.20300    0.32500    0.20570    1.000
    C111     C        0.18020    0.01890    0.03360    1.000
    C112     C        0.08870    0.01020    0.01890    1.000
    C113     C        0.04530    0.02540    0.94450    1.000
    H79      H        0.07680    0.04320    0.90590    1.000
    C114     C        0.95910    0.01660    0.92160    1.000
    C115     C        0.94750    0.02720    0.77160    1.000
    C116     C        0.89560    0.05880    0.70730    1.000
    H80      H        0.84740    0.08340    0.71620    1.000
    C117     C        0.99780    0.00940    0.62210    1.000
    H81      H        0.01480    0.00270    0.57140    1.000
    C118     C        0.92030    0.05140    0.62740    1.000
    H82      H        0.88980    0.07150    0.58240    1.000
    C119     C        0.04300    0.98180    0.68280    1.000
    H83      H        0.09130    0.95670    0.67540    1.000
    C120     C        0.01860    0.98980    0.76090    1.000
    H84      H        0.05080    0.96980    0.80500    1.000
