# CIF file generated by openbabel 3.1.0, see https://openbabel.org
data_I
_chemical_name_common 'image0'
_cell_length_a 9.646
_cell_length_b 9.41
_cell_length_c 30.929
_cell_angle_alpha 90
_cell_angle_beta 93.338
_cell_angle_gamma 90
_space_group_name_H-M_alt 'P 1'
_space_group_name_Hall 'P 1'
loop_
    _symmetry_equiv_pos_as_xyz
    x,y,z
loop_
    _atom_site_label
    _atom_site_type_symbol
    _atom_site_fract_x
    _atom_site_fract_y
    _atom_site_fract_z
    _atom_site_occupancy
    Zn1      Zn       0.03557    0.27106    0.14027    1.000
    Zn2      Zn       0.21463    0.55604    0.03969    1.000
    Zn3      Zn       0.06167    0.80211    0.19345    1.000
    P1       P        0.96249    0.11013    0.22080    1.000
    P2       P        0.24892    0.06078    0.18270    1.000
    P3       P        0.92741    0.37431    0.05042    1.000
    P4       P        0.02478    0.59927    0.11450    1.000
    O1       O        0.91100    0.19840    0.18205    1.000
    O2       O        0.93420    0.95110    0.21381    1.000
    O3       O        0.90020    0.16200    0.26185    1.000
    O4       O        0.18060    0.13010    0.14180    1.000
    O5       O        0.39830    0.10360    0.19050    1.000
    O6       O        0.23040    0.89940    0.18157    1.000
    O7       O        0.19140    0.27570    0.22864    1.000
    H1       H        0.14850    0.31820    0.24680    1.000
    O8       O        0.93160    0.25430    0.08325    1.000
    O9       O        0.06960    0.39960    0.03312    1.000
    O10      O        0.81740    0.34330    0.01447    1.000
    O11      O        0.96960    0.71590    0.14241    1.000
    O12      O        0.13390    0.65910    0.08580    1.000
    O13      O        0.07790    0.47240    0.14067    1.000
    O14      O        0.83450    0.64530    0.04797    1.000
    H2       H        0.86540    0.62720    0.02450    1.000
    N1       N        0.53300    0.87840    0.29910    1.000
    H3       H        0.56540    0.79330    0.30000    1.000
    N2       N        0.39180    0.45210    0.05730    1.000
    C1       C        0.15330    0.12840    0.22850    1.000
    C2       C        0.19350    0.05440    0.27230    1.000
    H4       H        0.15440    0.10980    0.29510    1.000
    H5       H        0.14850    0.96220    0.27200    1.000
    C3       C        0.34430    0.03220    0.28450    1.000
    C4       C        0.43270    0.14370    0.29680    1.000
    H6       H        0.39850    0.23620    0.29610    1.000
    C5       C        0.57060    0.12020    0.31000    1.000
    H7       H        0.62910    0.19540    0.31800    1.000
    C6       C        0.61790    0.98440    0.31080    1.000
    H8       H        0.70990    0.96550    0.31960    1.000
    C7       C        0.39970    0.89710    0.28610    1.000
    H9       H        0.34460    0.81930    0.27820    1.000
    C8       C        0.87690    0.53590    0.07880    1.000
    C9       C        0.75390    0.51330    0.10800    1.000
    H10      H        0.78890    0.46070    0.13330    1.000
    H11      H        0.72600    0.60610    0.11800    1.000
    C10      C        0.62350    0.43780    0.09000    1.000
    C11      C        0.60470    0.29740    0.09790    1.000
    H12      H        0.67610    0.24340    0.11110    1.000
    C12      C        0.48020    0.23700    0.08650    1.000
    H13      H        0.46540    0.14170    0.09260    1.000
    C13      C        0.37540    0.31570    0.06580    1.000
    H14      H        0.29150    0.27190    0.05770    1.000
    C14      C        0.51250    0.51220    0.07030    1.000
    H15      H        0.52300    0.60920    0.06590    1.000
    Zn4      Zn       0.96443    0.77106    0.35973    1.000
    Zn5      Zn       0.78537    0.05604    0.46031    1.000
    Zn6      Zn       0.93833    0.30211    0.30655    1.000
    P5       P        0.03751    0.61013    0.27920    1.000
    P6       P        0.75108    0.56078    0.31730    1.000
    P7       P        0.07259    0.87431    0.44958    1.000
    P8       P        0.97522    0.09927    0.38550    1.000
    O15      O        0.08900    0.69840    0.31795    1.000
    O16      O        0.06580    0.45110    0.28619    1.000
    O17      O        0.09980    0.66200    0.23815    1.000
    O18      O        0.81940    0.63010    0.35820    1.000
    O19      O        0.60170    0.60360    0.30950    1.000
    O20      O        0.76960    0.39940    0.31843    1.000
    O21      O        0.80860    0.77570    0.27136    1.000
    H16      H        0.85150    0.81820    0.25320    1.000
    O22      O        0.06840    0.75430    0.41675    1.000
    O23      O        0.93040    0.89960    0.46688    1.000
    O24      O        0.18260    0.84330    0.48553    1.000
    O25      O        0.03040    0.21590    0.35759    1.000
    O26      O        0.86610    0.15910    0.41420    1.000
    O27      O        0.92210    0.97240    0.35933    1.000
    O28      O        0.16550    0.14530    0.45203    1.000
    H17      H        0.13460    0.12720    0.47550    1.000
    N3       N        0.46700    0.37840    0.20090    1.000
    H18      H        0.43460    0.29330    0.20000    1.000
    N4       N        0.60820    0.95210    0.44270    1.000
    C15      C        0.84670    0.62840    0.27150    1.000
    C16      C        0.80650    0.55440    0.22770    1.000
    H19      H        0.84560    0.60980    0.20490    1.000
    H20      H        0.85150    0.46220    0.22800    1.000
    C17      C        0.65570    0.53220    0.21550    1.000
    C18      C        0.56730    0.64370    0.20320    1.000
    H21      H        0.60150    0.73620    0.20390    1.000
    C19      C        0.42940    0.62020    0.19000    1.000
    H22      H        0.37090    0.69540    0.18200    1.000
    C20      C        0.38210    0.48440    0.18920    1.000
    H23      H        0.29010    0.46550    0.18040    1.000
    C21      C        0.60030    0.39710    0.21390    1.000
    H24      H        0.65540    0.31930    0.22180    1.000
    C22      C        0.12310    0.03590    0.42120    1.000
    C23      C        0.24610    0.01330    0.39200    1.000
    H25      H        0.21110    0.96070    0.36670    1.000
    H26      H        0.27400    0.10610    0.38200    1.000
    C24      C        0.37650    0.93780    0.41000    1.000
    C25      C        0.39530    0.79740    0.40210    1.000
    H27      H        0.32390    0.74340    0.38890    1.000
    C26      C        0.51980    0.73700    0.41350    1.000
    H28      H        0.53460    0.64170    0.40740    1.000
    C27      C        0.62460    0.81570    0.43420    1.000
    H29      H        0.70850    0.77190    0.44230    1.000
    C28      C        0.48750    0.01220    0.42970    1.000
    H30      H        0.47700    0.10920    0.43410    1.000
    Zn7      Zn       0.96443    0.72894    0.85973    1.000
    Zn8      Zn       0.78537    0.44396    0.96031    1.000
    Zn9      Zn       0.93833    0.19789    0.80655    1.000
    P9       P        0.03751    0.88987    0.77920    1.000
    P10      P        0.75108    0.93922    0.81730    1.000
    P11      P        0.07259    0.62569    0.94958    1.000
    P12      P        0.97522    0.40073    0.88550    1.000
    O29      O        0.08900    0.80160    0.81795    1.000
    O30      O        0.06580    0.04890    0.78619    1.000
    O31      O        0.09980    0.83800    0.73815    1.000
    O32      O        0.81940    0.86990    0.85820    1.000
    O33      O        0.60170    0.89640    0.80950    1.000
    O34      O        0.76960    0.10060    0.81843    1.000
    O35      O        0.80860    0.72430    0.77136    1.000
    H31      H        0.85150    0.68180    0.75320    1.000
    O36      O        0.06840    0.74570    0.91675    1.000
    O37      O        0.93040    0.60040    0.96688    1.000
    O38      O        0.18260    0.65670    0.98553    1.000
    O39      O        0.03040    0.28410    0.85759    1.000
    O40      O        0.86610    0.34090    0.91420    1.000
    O41      O        0.92210    0.52760    0.85933    1.000
    O42      O        0.16550    0.35470    0.95203    1.000
    H32      H        0.13460    0.37280    0.97550    1.000
    N5       N        0.46700    0.12160    0.70090    1.000
    H33      H        0.43460    0.20670    0.70000    1.000
    N6       N        0.60820    0.54790    0.94270    1.000
    C29      C        0.84670    0.87160    0.77150    1.000
    C30      C        0.80650    0.94560    0.72770    1.000
    H34      H        0.84560    0.89020    0.70490    1.000
    H35      H        0.85150    0.03780    0.72800    1.000
    C31      C        0.65570    0.96780    0.71550    1.000
    C32      C        0.56730    0.85630    0.70320    1.000
    H36      H        0.60150    0.76380    0.70390    1.000
    C33      C        0.42940    0.87980    0.69000    1.000
    H37      H        0.37090    0.80460    0.68200    1.000
    C34      C        0.38210    0.01560    0.68920    1.000
    H38      H        0.29010    0.03450    0.68040    1.000
    C35      C        0.60030    0.10290    0.71390    1.000
    H39      H        0.65540    0.18070    0.72180    1.000
    C36      C        0.12310    0.46410    0.92120    1.000
    C37      C        0.24610    0.48670    0.89200    1.000
    H40      H        0.21110    0.53930    0.86670    1.000
    H41      H        0.27400    0.39390    0.88200    1.000
    C38      C        0.37650    0.56220    0.91000    1.000
    C39      C        0.39530    0.70260    0.90210    1.000
    H42      H        0.32390    0.75660    0.88890    1.000
    C40      C        0.51980    0.76300    0.91350    1.000
    H43      H        0.53460    0.85830    0.90740    1.000
    C41      C        0.62460    0.68430    0.93420    1.000
    H44      H        0.70850    0.72810    0.94230    1.000
    C42      C        0.48750    0.48780    0.92970    1.000
    H45      H        0.47700    0.39080    0.93410    1.000
    Zn10     Zn       0.03557    0.22894    0.64027    1.000
    Zn11     Zn       0.21463    0.94396    0.53969    1.000
    Zn12     Zn       0.06167    0.69789    0.69345    1.000
    P13      P        0.96249    0.38987    0.72080    1.000
    P14      P        0.24892    0.43922    0.68270    1.000
    P15      P        0.92741    0.12569    0.55042    1.000
    P16      P        0.02478    0.90073    0.61450    1.000
    O43      O        0.91100    0.30160    0.68205    1.000
    O44      O        0.93420    0.54890    0.71381    1.000
    O45      O        0.90020    0.33800    0.76185    1.000
    O46      O        0.18060    0.36990    0.64180    1.000
    O47      O        0.39830    0.39640    0.69050    1.000
    O48      O        0.23040    0.60060    0.68157    1.000
    O49      O        0.19140    0.22430    0.72864    1.000
    H46      H        0.14850    0.18180    0.74680    1.000
    O50      O        0.93160    0.24570    0.58325    1.000
    O51      O        0.06960    0.10040    0.53312    1.000
    O52      O        0.81740    0.15670    0.51447    1.000
    O53      O        0.96960    0.78410    0.64241    1.000
    O54      O        0.13390    0.84090    0.58580    1.000
    O55      O        0.07790    0.02760    0.64067    1.000
    O56      O        0.83450    0.85470    0.54797    1.000
    H47      H        0.86540    0.87280    0.52450    1.000
    N7       N        0.53300    0.62160    0.79910    1.000
    H48      H        0.56540    0.70670    0.80000    1.000
    N8       N        0.39180    0.04790    0.55730    1.000
    C43      C        0.15330    0.37160    0.72850    1.000
    C44      C        0.19350    0.44560    0.77230    1.000
    H49      H        0.15440    0.39020    0.79510    1.000
    H50      H        0.14850    0.53780    0.77200    1.000
    C45      C        0.34430    0.46780    0.78450    1.000
    C46      C        0.43270    0.35630    0.79680    1.000
    H51      H        0.39850    0.26380    0.79610    1.000
    C47      C        0.57060    0.37980    0.81000    1.000
    H52      H        0.62910    0.30460    0.81800    1.000
    C48      C        0.61790    0.51560    0.81080    1.000
    H53      H        0.70990    0.53450    0.81960    1.000
    C49      C        0.39970    0.60290    0.78610    1.000
    H54      H        0.34460    0.68070    0.77820    1.000
    C50      C        0.87690    0.96410    0.57880    1.000
    C51      C        0.75390    0.98670    0.60800    1.000
    H55      H        0.78890    0.03930    0.63330    1.000
    H56      H        0.72600    0.89390    0.61800    1.000
    C52      C        0.62350    0.06220    0.59000    1.000
    C53      C        0.60470    0.20260    0.59790    1.000
    H57      H        0.67610    0.25660    0.61110    1.000
    C54      C        0.48020    0.26300    0.58650    1.000
    H58      H        0.46540    0.35830    0.59260    1.000
    C55      C        0.37540    0.18430    0.56580    1.000
    H59      H        0.29150    0.22810    0.55770    1.000
    C56      C        0.51250    0.98780    0.57030    1.000
    H60      H        0.52300    0.89080    0.56590    1.000
