# CIF file generated by openbabel 3.1.0, see https://openbabel.org
data_I
_chemical_name_common 'image0'
_cell_length_a 15.261
_cell_length_b 15.261
_cell_length_c 28.898
_cell_angle_alpha 90
_cell_angle_beta 90
_cell_angle_gamma 90
_space_group_name_H-M_alt 'P 1'
_space_group_name_Hall 'P 1'
loop_
    _symmetry_equiv_pos_as_xyz
    x,y,z
loop_
    _atom_site_label
    _atom_site_type_symbol
    _atom_site_fract_x
    _atom_site_fract_y
    _atom_site_fract_z
    _atom_site_occupancy
    Ga1      Ga       0.19942    0.25867    0.29642    1.000
    Ga2      Ga       0.06992    0.15520    0.19930    1.000
    P1       P        0.22778    0.07486    0.25108    1.000
    P2       P        0.20545    0.17983    0.11171    1.000
    O1       O        0.21260    0.13270    0.29438    1.000
    O2       O        0.12830    0.14320    0.13902    1.000
    O3       O        0.29450    0.11950    0.21846    1.000
    O4       O        0.17850    0.22800    0.06803    1.000
    O5       O        0.23590    0.26230    0.35885    1.000
    O6       O        0.23590    0.40010    0.40368    1.000
    O7       O        0.49290    0.33230    0.24256    1.000
    O8       O        0.16580    0.24320    0.22517    1.000
    O9       O        0.58070    0.25940    0.18149    1.000
    O10      O        0.23340    0.51190    0.23328    1.000
    O11      O        0.35920    0.43960    0.27491    1.000
    Ga3      Ga       0.69942    0.75867    0.79642    1.000
    Ga4      Ga       0.56992    0.65520    0.69930    1.000
    P3       P        0.72778    0.57486    0.75108    1.000
    P4       P        0.70545    0.67983    0.61171    1.000
    O12      O        0.71260    0.63270    0.79438    1.000
    O13      O        0.62830    0.64320    0.63902    1.000
    O14      O        0.79450    0.61950    0.71846    1.000
    O15      O        0.67850    0.72800    0.56803    1.000
    O16      O        0.73590    0.76230    0.85885    1.000
    O17      O        0.73590    0.90010    0.90368    1.000
    O18      O        0.99290    0.83230    0.74256    1.000
    O19      O        0.66580    0.74320    0.72517    1.000
    O20      O        0.08070    0.75940    0.68149    1.000
    O21      O        0.73340    0.01190    0.73328    1.000
    O22      O        0.85920    0.93960    0.77491    1.000
    Ga5      Ga       0.30058    0.74133    0.79642    1.000
    Ga6      Ga       0.43008    0.84480    0.69930    1.000
    P5       P        0.27222    0.92514    0.75108    1.000
    P6       P        0.29455    0.82017    0.61171    1.000
    O23      O        0.28740    0.86730    0.79438    1.000
    O24      O        0.37170    0.85680    0.63902    1.000
    O25      O        0.20550    0.88050    0.71846    1.000
    O26      O        0.32150    0.77200    0.56803    1.000
    O27      O        0.26410    0.73770    0.85885    1.000
    O28      O        0.26410    0.59990    0.90368    1.000
    O29      O        0.00710    0.66770    0.74256    1.000
    O30      O        0.33420    0.75680    0.72517    1.000
    O31      O        0.91930    0.74060    0.68149    1.000
    O32      O        0.26660    0.48810    0.73328    1.000
    O33      O        0.14080    0.56040    0.77491    1.000
    Ga7      Ga       0.80058    0.24133    0.29642    1.000
    Ga8      Ga       0.93008    0.34480    0.19930    1.000
    P7       P        0.77222    0.42514    0.25108    1.000
    P8       P        0.79455    0.32017    0.11171    1.000
    O34      O        0.78740    0.36730    0.29438    1.000
    O35      O        0.87170    0.35680    0.13902    1.000
    O36      O        0.70550    0.38050    0.21846    1.000
    O37      O        0.82150    0.27200    0.06803    1.000
    O38      O        0.76410    0.23770    0.35885    1.000
    O39      O        0.76410    0.09990    0.40368    1.000
    O40      O        0.50710    0.16770    0.24256    1.000
    O41      O        0.83420    0.25680    0.22517    1.000
    O42      O        0.41930    0.24060    0.18149    1.000
    O43      O        0.76660    0.98810    0.23328    1.000
    O44      O        0.64080    0.06040    0.27491    1.000
    Ga9      Ga       0.49133    0.44942    0.54642    1.000
    Ga10     Ga       0.59480    0.31992    0.44930    1.000
    P9       P        0.67514    0.47778    0.50108    1.000
    P10      P        0.57017    0.45545    0.36171    1.000
    O45      O        0.61730    0.46260    0.54438    1.000
    O46      O        0.60680    0.37830    0.38902    1.000
    O47      O        0.63050    0.54450    0.46846    1.000
    O48      O        0.52200    0.42850    0.31803    1.000
    O49      O        0.48770    0.48590    0.60885    1.000
    O50      O        0.34990    0.48590    0.65368    1.000
    O51      O        0.41770    0.74290    0.49256    1.000
    O52      O        0.50680    0.41580    0.47517    1.000
    O53      O        0.49060    0.83070    0.43149    1.000
    O54      O        0.23810    0.48340    0.48328    1.000
    O55      O        0.31040    0.60920    0.52491    1.000
    Ga11     Ga       0.99133    0.94942    0.04642    1.000
    Ga12     Ga       0.09480    0.81992    0.94930    1.000
    P11      P        0.17514    0.97778    0.00108    1.000
    P12      P        0.07017    0.95545    0.86171    1.000
    O56      O        0.11730    0.96260    0.04438    1.000
    O57      O        0.10680    0.87830    0.88902    1.000
    O58      O        0.13050    0.04450    0.96846    1.000
    O59      O        0.02200    0.92850    0.81803    1.000
    O60      O        0.98770    0.98590    0.10885    1.000
    O61      O        0.84990    0.98590    0.15368    1.000
    O62      O        0.91770    0.24290    0.99256    1.000
    O63      O        0.00680    0.91580    0.97517    1.000
    O64      O        0.99060    0.33070    0.93149    1.000
    O65      O        0.73810    0.98340    0.98328    1.000
    O66      O        0.81040    0.10920    0.02491    1.000
    Ga13     Ga       0.00867    0.55058    0.04642    1.000
    Ga14     Ga       0.90520    0.68008    0.94930    1.000
    P13      P        0.82486    0.52222    0.00108    1.000
    P14      P        0.92983    0.54455    0.86171    1.000
    O67      O        0.88270    0.53740    0.04438    1.000
    O68      O        0.89320    0.62170    0.88902    1.000
    O69      O        0.86950    0.45550    0.96846    1.000
    O70      O        0.97800    0.57150    0.81803    1.000
    O71      O        0.01230    0.51410    0.10885    1.000
    O72      O        0.15010    0.51410    0.15368    1.000
    O73      O        0.08230    0.25710    0.99256    1.000
    O74      O        0.99320    0.58420    0.97517    1.000
    O75      O        0.00940    0.16930    0.93149    1.000
    O76      O        0.26190    0.51660    0.98328    1.000
    O77      O        0.18960    0.39080    0.02491    1.000
    Ga15     Ga       0.50867    0.05058    0.54642    1.000
    Ga16     Ga       0.40520    0.18008    0.44930    1.000
    P15      P        0.32486    0.02222    0.50108    1.000
    P16      P        0.42983    0.04455    0.36171    1.000
    O78      O        0.38270    0.03740    0.54438    1.000
    O79      O        0.39320    0.12170    0.38902    1.000
    O80      O        0.36950    0.95550    0.46846    1.000
    O81      O        0.47800    0.07150    0.31803    1.000
    O82      O        0.51230    0.01410    0.60885    1.000
    O83      O        0.65010    0.01410    0.65368    1.000
    O84      O        0.58230    0.75710    0.49256    1.000
    O85      O        0.49320    0.08420    0.47517    1.000
    O86      O        0.50940    0.66930    0.43149    1.000
    O87      O        0.76190    0.01660    0.48328    1.000
    O88      O        0.68960    0.89080    0.52491    1.000
    Ga17     Ga       0.80058    0.74133    0.70358    1.000
    Ga18     Ga       0.93008    0.84480    0.80070    1.000
    P17      P        0.77222    0.92514    0.74892    1.000
    P18      P        0.79455    0.82017    0.88829    1.000
    O89      O        0.78740    0.86730    0.70562    1.000
    O90      O        0.87170    0.85680    0.86098    1.000
    O91      O        0.70550    0.88050    0.78154    1.000
    O92      O        0.82150    0.77200    0.93197    1.000
    O93      O        0.76410    0.73770    0.64115    1.000
    O94      O        0.76410    0.59990    0.59632    1.000
    O95      O        0.50710    0.66770    0.75744    1.000
    O96      O        0.83420    0.75680    0.77483    1.000
    O97      O        0.41930    0.74060    0.81851    1.000
    O98      O        0.76660    0.48810    0.76672    1.000
    O99      O        0.64080    0.56040    0.72509    1.000
    Ga19     Ga       0.30058    0.24133    0.20358    1.000
    Ga20     Ga       0.43008    0.34480    0.30070    1.000
    P19      P        0.27222    0.42514    0.24892    1.000
    P20      P        0.29455    0.32017    0.38829    1.000
    O100     O        0.28740    0.36730    0.20562    1.000
    O101     O        0.37170    0.35680    0.36098    1.000
    O102     O        0.20550    0.38050    0.28154    1.000
    O103     O        0.32150    0.27200    0.43197    1.000
    O104     O        0.26410    0.23770    0.14115    1.000
    O105     O        0.26410    0.09990    0.09632    1.000
    O106     O        0.00710    0.16770    0.25744    1.000
    O107     O        0.33420    0.25680    0.27483    1.000
    O108     O        0.91930    0.24060    0.31851    1.000
    O109     O        0.26660    0.98810    0.26672    1.000
    O110     O        0.14080    0.06040    0.22509    1.000
    Ga21     Ga       0.69942    0.25867    0.20358    1.000
    Ga22     Ga       0.56992    0.15520    0.30070    1.000
    P21      P        0.72778    0.07486    0.24892    1.000
    P22      P        0.70545    0.17983    0.38829    1.000
    O111     O        0.71260    0.13270    0.20562    1.000
    O112     O        0.62830    0.14320    0.36098    1.000
    O113     O        0.79450    0.11950    0.28154    1.000
    O114     O        0.67850    0.22800    0.43197    1.000
    O115     O        0.73590    0.26230    0.14115    1.000
    O116     O        0.73590    0.40010    0.09632    1.000
    O117     O        0.99290    0.33230    0.25744    1.000
    O118     O        0.66580    0.24320    0.27483    1.000
    O119     O        0.08070    0.25940    0.31851    1.000
    O120     O        0.73340    0.51190    0.26672    1.000
    O121     O        0.85920    0.43960    0.22509    1.000
    Ga23     Ga       0.19942    0.75867    0.70358    1.000
    Ga24     Ga       0.06992    0.65520    0.80070    1.000
    P23      P        0.22778    0.57486    0.74892    1.000
    P24      P        0.20545    0.67983    0.88829    1.000
    O122     O        0.21260    0.63270    0.70562    1.000
    O123     O        0.12830    0.64320    0.86098    1.000
    O124     O        0.29450    0.61950    0.78154    1.000
    O125     O        0.17850    0.72800    0.93197    1.000
    O126     O        0.23590    0.76230    0.64115    1.000
    O127     O        0.23590    0.90010    0.59632    1.000
    O128     O        0.49290    0.83230    0.75744    1.000
    O129     O        0.16580    0.74320    0.77483    1.000
    O130     O        0.58070    0.75940    0.81851    1.000
    O131     O        0.23340    0.01190    0.76672    1.000
    O132     O        0.35920    0.93960    0.72509    1.000
    Ga25     Ga       0.50867    0.55058    0.45358    1.000
    Ga26     Ga       0.40520    0.68008    0.55070    1.000
    P25      P        0.32486    0.52222    0.49892    1.000
    P26      P        0.42983    0.54455    0.63829    1.000
    O133     O        0.38270    0.53740    0.45562    1.000
    O134     O        0.39320    0.62170    0.61098    1.000
    O135     O        0.36950    0.45550    0.53154    1.000
    O136     O        0.47800    0.57150    0.68197    1.000
    O137     O        0.51230    0.51410    0.39115    1.000
    O138     O        0.65010    0.51410    0.34632    1.000
    O139     O        0.58230    0.25710    0.50744    1.000
    O140     O        0.49320    0.58420    0.52483    1.000
    O141     O        0.50940    0.16930    0.56851    1.000
    O142     O        0.76190    0.51660    0.51672    1.000
    O143     O        0.68960    0.39080    0.47509    1.000
    Ga27     Ga       0.00867    0.05058    0.95358    1.000
    Ga28     Ga       0.90520    0.18008    0.05070    1.000
    P27      P        0.82486    0.02222    0.99892    1.000
    P28      P        0.92983    0.04455    0.13829    1.000
    O144     O        0.88270    0.03740    0.95562    1.000
    O145     O        0.89320    0.12170    0.11098    1.000
    O146     O        0.86950    0.95550    0.03154    1.000
    O147     O        0.97800    0.07150    0.18197    1.000
    O148     O        0.01230    0.01410    0.89115    1.000
    O149     O        0.15010    0.01410    0.84632    1.000
    O150     O        0.08230    0.75710    0.00744    1.000
    O151     O        0.99320    0.08420    0.02483    1.000
    O152     O        0.00940    0.66930    0.06851    1.000
    O153     O        0.26190    0.01660    0.01672    1.000
    O154     O        0.18960    0.89080    0.97509    1.000
    Ga29     Ga       0.99133    0.44942    0.95358    1.000
    Ga30     Ga       0.09480    0.31992    0.05070    1.000
    P29      P        0.17514    0.47778    0.99892    1.000
    P30      P        0.07017    0.45545    0.13829    1.000
    O155     O        0.11730    0.46260    0.95562    1.000
    O156     O        0.10680    0.37830    0.11098    1.000
    O157     O        0.13050    0.54450    0.03154    1.000
    O158     O        0.02200    0.42850    0.18197    1.000
    O159     O        0.98770    0.48590    0.89115    1.000
    O160     O        0.84990    0.48590    0.84632    1.000
    O161     O        0.91770    0.74290    0.00744    1.000
    O162     O        0.00680    0.41580    0.02483    1.000
    O163     O        0.99060    0.83070    0.06851    1.000
    O164     O        0.73810    0.48340    0.01672    1.000
    O165     O        0.81040    0.60920    0.97509    1.000
    Ga31     Ga       0.49133    0.94942    0.45358    1.000
    Ga32     Ga       0.59480    0.81992    0.55070    1.000
    P31      P        0.67514    0.97778    0.49892    1.000
    P32      P        0.57017    0.95545    0.63829    1.000
    O166     O        0.61730    0.96260    0.45562    1.000
    O167     O        0.60680    0.87830    0.61098    1.000
    O168     O        0.63050    0.04450    0.53154    1.000
    O169     O        0.52200    0.92850    0.68197    1.000
    O170     O        0.48770    0.98590    0.39115    1.000
    O171     O        0.34990    0.98590    0.34632    1.000
    O172     O        0.41770    0.24290    0.50744    1.000
    O173     O        0.50680    0.91580    0.52483    1.000
    O174     O        0.49060    0.33070    0.56851    1.000
    O175     O        0.23810    0.98340    0.51672    1.000
    O176     O        0.31040    0.10920    0.47509    1.000
    P33      P        0.50000    0.25000    0.21256    1.000
    P34      P        0.00000    0.75000    0.71256    1.000
    P35      P        0.50000    0.75000    0.46256    1.000
    P36      P        0.00000    0.25000    0.96256    1.000
    P37      P        0.50000    0.75000    0.78744    1.000
    P38      P        0.00000    0.25000    0.28744    1.000
    P39      P        0.50000    0.25000    0.53744    1.000
    P40      P        0.00000    0.75000    0.03744    1.000
    O177     O        0.00000    0.25000    0.17430    1.000
    O178     O        0.50000    0.75000    0.67430    1.000
    O179     O        0.50000    0.25000    0.42430    1.000
    O180     O        0.00000    0.75000    0.92430    1.000
    O181     O        0.00000    0.75000    0.82570    1.000
    O182     O        0.50000    0.25000    0.32570    1.000
    O183     O        0.50000    0.75000    0.57570    1.000
    O184     O        0.00000    0.25000    0.07570    1.000
