# CIF file generated by openbabel 3.1.0, see https://openbabel.org
data_I
_chemical_name_common 'image0'
_cell_length_a 11.4463
_cell_length_b 24.6528
_cell_length_c 20.3256
_cell_angle_alpha 90
_cell_angle_beta 92.6948
_cell_angle_gamma 90
_space_group_name_H-M_alt 'P 1'
_space_group_name_Hall 'P 1'
loop_
    _symmetry_equiv_pos_as_xyz
    x,y,z
loop_
    _atom_site_label
    _atom_site_type_symbol
    _atom_site_fract_x
    _atom_site_fract_y
    _atom_site_fract_z
    _atom_site_occupancy
    Co1      Co       0.43882    0.19040    0.26730    1.000
    Co2      Co       0.44119    0.26607    0.01450    1.000
    Co3      Co       0.46446    0.18621    0.76266    1.000
    Co4      Co       0.42579    0.27185    0.51247    1.000
    N1       N        0.62840    0.19100    0.26720    1.000
    N2       N        0.24960    0.18380    0.26990    1.000
    O1       O        0.43220    0.16233    0.17320    1.000
    O2       O        0.44240    0.22575    0.35900    1.000
    O3       O        0.45750    0.16149    0.66640    1.000
    N3       N        0.63100    0.26740    0.01390    1.000
    O4       O        0.45190    0.23528    0.10960    1.000
    O5       O        0.41460    0.30062    0.41770    1.000
    N4       N        0.23530    0.27750    0.51340    1.000
    N5       N        0.24970    0.27150    0.01500    1.000
    O6       O        0.44150    0.23685    0.60660    1.000
    C1       C        0.67480    0.27580    0.45400    1.000
    H1       H        0.63200    0.27260    0.41300    1.000
    N6       N        0.27330    0.17930    0.76110    1.000
    O7       O        0.43300    0.27632    0.24580    1.000
    H2       H        0.50300    0.28000    0.23300    1.000
    C2       C        0.07090    0.26200    0.07150    1.000
    H3       H        0.03410    0.25320    0.11110    1.000
    N7       N        0.61550    0.27700    0.50940    1.000
    C3       C        0.19200    0.25940    0.06900    1.000
    H4       H        0.23610    0.24860    0.10760    1.000
    C4       C        0.19080    0.19670    0.32420    1.000
    H5       H        0.23510    0.20660    0.36310    1.000
    C5       C        0.07080    0.19630    0.32640    1.000
    H6       H        0.03450    0.20490    0.36610    1.000
    C6       C        0.09490    0.19080    0.81520    1.000
    H7       H        0.05740    0.20050    0.85420    1.000
    O8       O        0.40920    0.18460    0.49500    1.000
    C7       C        0.18210    0.16840    0.21680    1.000
    H8       H        0.22050    0.15730    0.17860    1.000
    C8       C        0.06490    0.29170    0.96030    1.000
    H9       H        0.02320    0.30370    0.92150    1.000
    C9       C        0.18610    0.28850    0.96170    1.000
    H10      H        0.22550    0.29870    0.92350    1.000
    C10      C        0.00390    0.27730    0.01570    1.000
    C11      C        0.20960    0.16090    0.70800    1.000
    H11      H        0.24980    0.14890    0.67090    1.000
    C12      C        0.42450    0.27570    0.36420    1.000
    C13      C        0.81120    0.17710    0.32650    1.000
    H12      H        0.85240    0.16960    0.36720    1.000
    C14      C        0.86090    0.28390    0.51280    1.000
    C15      C        0.17630    0.25950    0.56440    1.000
    H13      H        0.21940    0.24440    0.60110    1.000
    C16      C        0.05090    0.30490    0.46280    1.000
    H14      H        0.00950    0.32160    0.42660    1.000
    C17      C        0.08820    0.15870    0.70520    1.000
    H15      H        0.04690    0.14620    0.66650    1.000
    C18      C        0.21430    0.19250    0.81390    1.000
    H16      H        0.25740    0.20370    0.85260    1.000
    C19      C        0.69160    0.18050    0.32360    1.000
    H17      H        0.65130    0.17530    0.36290    1.000
    C20      C        0.44710    0.18670    0.61320    1.000
    C21      C        0.02800    0.17490    0.75940    1.000
    C22      C        0.43590    0.15100    0.55050    1.000
    H18      H        0.37000    0.12490    0.55530    1.000
    C23      C        0.00260    0.18300    0.27010    1.000
    C24      C        0.41590    0.31030    0.30140    1.000
    H19      H        0.48010    0.33790    0.30410    1.000
    C25      C        0.79640    0.27900    0.45400    1.000
    H20      H        0.83470    0.27790    0.41360    1.000
    C26      C        0.87240    0.18490    0.26930    1.000
    C27      C        0.06250    0.16750    0.21410    1.000
    H21      H        0.02030    0.15660    0.17500    1.000
    C28      C        0.99110    0.28380    0.51460    1.000
    C29      C        0.17270    0.30130    0.46420    1.000
    H22      H        0.21290    0.31640    0.42870    1.000
    C30      C        0.05630    0.26190    0.56640    1.000
    H23      H        0.01860    0.24820    0.60370    1.000
    C31      C        0.67740    0.28350    0.56560    1.000
    H24      H        0.63640    0.28600    0.60500    1.000
    N8       N        0.45550    0.10950    0.30340    1.000
    N9       N        0.55040    0.84600    0.94540    1.000
    C32      C        0.43650    0.18600    0.11860    1.000
    C33      C        0.29980    0.34020    0.29500    1.000
    O9       O        0.42590    0.17943    0.00010    1.000
    H25      H        0.35800    0.17800    0.97800    1.000
    O10      O        0.46900    0.27277    0.74720    1.000
    H26      H        0.52300    0.29000    0.72700    1.000
    O11      O        0.46630    0.21866    0.85760    1.000
    C34      C        0.50040    0.00710    0.35900    1.000
    C35      C        0.54740    0.02260    0.29970    1.000
    H27      H        0.59570    0.99830    0.27700    1.000
    C36      C        0.40940    0.09450    0.36010    1.000
    H28      H        0.36090    0.11960    0.38140    1.000
    C37      C        0.81010    0.25980    0.95900    1.000
    H29      H        0.84850    0.25090    0.92000    1.000
    C38      C        0.89950    0.17540    0.75900    1.000
    C39      C        0.83920    0.16690    0.81740    1.000
    H30      H        0.88100    0.15850    0.85750    1.000
    C40      C        0.69140    0.25610    0.96040    1.000
    H31      H        0.64890    0.24500    0.92140    1.000
    C41      C        0.44380    0.30500    0.80310    1.000
    H32      H        0.50510    0.33370    0.80880    1.000
    C42      C        0.69350    0.28470    0.06780    1.000
    H33      H        0.65280    0.29450    0.10570    1.000
    C43      C        0.32510    0.33220    0.79360    1.000
    C44      C        0.24160    0.31370    0.74750    1.000
    H34      H        0.26060    0.28490    0.71890    1.000
    C45      C        0.50960    0.00260    0.85700    1.000
    C46      C        0.51210    0.94400    0.45580    1.000
    H35      H        0.48850    0.97270    0.48350    1.000
    C47      C        0.47780    0.93630    0.94740    1.000
    H36      H        0.43460    0.96300    0.96960    1.000
    C48      C        0.13140    0.33640    0.74230    1.000
    H37      H        0.07470    0.32240    0.71110    1.000
    C49      C        0.53240    0.89350    0.48150    1.000
    H38      H        0.52210    0.88820    0.52710    1.000
    C50      C        0.50080    0.01020    0.78960    1.000
    H39      H        0.50610    0.98010    0.76070    1.000
    N10      N        0.47760    0.10580    0.80240    1.000
    C51      C        0.58150    0.86010    0.38330    1.000
    H40      H        0.60720    0.83070    0.35740    1.000
    C52      C        0.48410    0.06160    0.76470    1.000
    H41      H        0.47690    0.06590    0.71820    1.000
    C53      C        0.49390    0.88560    0.97490    1.000
    H42      H        0.46320    0.87860    0.01660    1.000
    C54      C        0.58540    0.90730    0.85650    1.000
    H43      H        0.61890    0.91340    0.81530    1.000
    N11      N        0.56570    0.85160    0.44620    1.000
    C55      C        0.56230    0.91000    0.35300    1.000
    H44      H        0.57430    0.91400    0.30730    1.000
    O12      O        0.43590    0.29215    0.91860    1.000
    C56      C        0.59610    0.85720    0.88690    1.000
    H45      H        0.63760    0.82940    0.86560    1.000
    C57      C        0.20500    0.31950    0.25840    1.000
    H46      H        0.21390    0.28730    0.23360    1.000
    N12      N        0.65390    0.18220    0.75990    1.000
    C58      C        0.54790    0.11900    0.54400    1.000
    C59      C        0.87440    0.27640    0.01470    1.000
    C60      C        0.09710    0.34530    0.25740    1.000
    H47      H        0.03290    0.33030    0.23230    1.000
    C61      C        0.44860    0.26910    0.86440    1.000
    C62      C        0.71890    0.17100    0.81500    1.000
    H48      H        0.67970    0.16550    0.85470    1.000
    C63      C        0.10340    0.37910    0.78200    1.000
    H49      H        0.02790    0.39510    0.77820    1.000
    C64      C        0.18640    0.39840    0.82740    1.000
    H50      H        0.16750    0.42780    0.85520    1.000
    C65      C        0.81300    0.28870    0.07050    1.000
    H51      H        0.85370    0.29970    0.11010    1.000
    C66      C        0.52480    0.94850    0.88720    1.000
    C67      C        0.80700    0.19450    0.21100    1.000
    H52      H        0.84440    0.19890    0.17060    1.000
    C68      C        0.83070    0.18190    0.70220    1.000
    H53      H        0.86560    0.18330    0.66080    1.000
    C69      C        0.49070    0.09820    0.86740    1.000
    H54      H        0.48840    0.12910    0.89530    1.000
    C70      C        0.68820    0.19750    0.21290    1.000
    H55      H        0.64500    0.20470    0.17280    1.000
    C71      C        0.52310    0.07330    0.27440    1.000
    H56      H        0.55620    0.08320    0.23400    1.000
    C72      C        0.29700    0.37550    0.83340    1.000
    H57      H        0.35350    0.38950    0.86470    1.000
    C73      C        0.71280    0.18630    0.70540    1.000
    H58      H        0.66890    0.19280    0.66540    1.000
    C74      C        0.79820    0.28680    0.57030    1.000
    H59      H        0.83810    0.29110    0.61200    1.000
    C75      C        0.52590    0.95360    0.38900    1.000
    C76      C        0.63880    0.14020    0.51130    1.000
    H60      H        0.62970    0.17440    0.49020    1.000
    C77      C        0.42880    0.04430    0.38890    1.000
    H61      H        0.39350    0.03530    0.42880    1.000
    C78      C        0.50730    0.04810    0.89600    1.000
    H62      H        0.51700    0.04500    0.94260    1.000
    C79      C        0.42110    0.14820    0.05870    1.000
    H63      H        0.34190    0.13110    0.05950    1.000
    C80      C        0.51180    0.10360    0.06380    1.000
    C81      C        0.17910    0.41510    0.32630    1.000
    H64      H        0.17100    0.44890    0.34800    1.000
    C82      C        0.62540    0.11480    0.05330    1.000
    H65      H        0.64800    0.15010    0.04000    1.000
    C83      C        0.28580    0.38900    0.32830    1.000
    H66      H        0.35040    0.40440    0.35260    1.000
    C84      C        0.08250    0.39150    0.29200    1.000
    H67      H        0.00750    0.40790    0.29300    1.000
    C85      C        0.75960    0.06400    0.53820    1.000
    H68      H        0.83180    0.04510    0.53710    1.000
    C86      C        0.55940    0.06950    0.57320    1.000
    H69      H        0.49610    0.05370    0.59490    1.000
    C87      C        0.66650    0.04240    0.57060    1.000
    H70      H        0.67560    0.00820    0.59170    1.000
    C88      C        0.47980    0.05260    0.08420    1.000
    H71      H        0.40020    0.04610    0.09280    1.000
    C89      C        0.67120    0.02190    0.08140    1.000
    H72      H        0.72670    0.99340    0.08650    1.000
    C90      C        0.71020    0.07300    0.06270    1.000
    H73      H        0.79070    0.07970    0.05640    1.000
    C91      C        0.55830    0.01110    0.09240    1.000
    H74      H        0.53430    0.97600    0.10550    1.000
    C92      C        0.74510    0.11260    0.50840    1.000
    H75      H        0.80730    0.12800    0.48530    1.000
    H76      H        0.34230    0.18600    0.47720    1.000
    Co5      Co       0.56118    0.69040    0.73270    1.000
    Co6      Co       0.55881    0.76607    0.98550    1.000
    Co7      Co       0.53554    0.68621    0.23734    1.000
    Co8      Co       0.57421    0.77185    0.48753    1.000
    N13      N        0.37160    0.69100    0.73280    1.000
    N14      N        0.75040    0.68380    0.73010    1.000
    O13      O        0.56780    0.66233    0.82680    1.000
    O14      O        0.55760    0.72575    0.64100    1.000
    O15      O        0.54250    0.66149    0.33360    1.000
    N15      N        0.36900    0.76740    0.98610    1.000
    O16      O        0.54810    0.73528    0.89040    1.000
    O17      O        0.58540    0.80062    0.58230    1.000
    N16      N        0.76470    0.77750    0.48660    1.000
    N17      N        0.75030    0.77150    0.98500    1.000
    O18      O        0.55850    0.73685    0.39340    1.000
    C93      C        0.32520    0.77580    0.54600    1.000
    H77      H        0.36800    0.77260    0.58700    1.000
    N18      N        0.72670    0.67930    0.23890    1.000
    O19      O        0.56700    0.77632    0.75420    1.000
    H78      H        0.49700    0.78000    0.76700    1.000
    C94      C        0.92910    0.76200    0.92850    1.000
    H79      H        0.96590    0.75320    0.88890    1.000
    N19      N        0.38450    0.77700    0.49060    1.000
    C95      C        0.80800    0.75940    0.93100    1.000
    H80      H        0.76390    0.74860    0.89240    1.000
    C96      C        0.80920    0.69670    0.67580    1.000
    H81      H        0.76490    0.70660    0.63690    1.000
    C97      C        0.92920    0.69630    0.67360    1.000
    H82      H        0.96550    0.70490    0.63390    1.000
    C98      C        0.90510    0.69080    0.18480    1.000
    H83      H        0.94260    0.70050    0.14580    1.000
    O20      O        0.59080    0.68460    0.50500    1.000
    C99      C        0.81790    0.66840    0.78320    1.000
    H84      H        0.77950    0.65730    0.82140    1.000
    C100     C        0.93510    0.79170    0.03970    1.000
    H85      H        0.97680    0.80370    0.07850    1.000
    C101     C        0.81390    0.78850    0.03830    1.000
    H86      H        0.77450    0.79870    0.07650    1.000
    C102     C        0.99610    0.77730    0.98430    1.000
    C103     C        0.79040    0.66090    0.29200    1.000
    H87      H        0.75020    0.64890    0.32910    1.000
    C104     C        0.57550    0.77570    0.63580    1.000
    C105     C        0.18880    0.67710    0.67350    1.000
    H88      H        0.14760    0.66960    0.63280    1.000
    C106     C        0.13910    0.78390    0.48720    1.000
    C107     C        0.82370    0.75950    0.43560    1.000
    H89      H        0.78060    0.74440    0.39890    1.000
    C108     C        0.94910    0.80490    0.53720    1.000
    H90      H        0.99050    0.82160    0.57340    1.000
    C109     C        0.91180    0.65870    0.29480    1.000
    H91      H        0.95310    0.64620    0.33350    1.000
    C110     C        0.78570    0.69250    0.18610    1.000
    H92      H        0.74260    0.70370    0.14740    1.000
    C111     C        0.30840    0.68050    0.67640    1.000
    H93      H        0.34870    0.67530    0.63710    1.000
    C112     C        0.55290    0.68670    0.38680    1.000
    C113     C        0.97200    0.67490    0.24060    1.000
    C114     C        0.56410    0.65100    0.44950    1.000
    H94      H        0.63000    0.62490    0.44470    1.000
    C115     C        0.99740    0.68300    0.72990    1.000
    C116     C        0.58410    0.81030    0.69860    1.000
    H95      H        0.51990    0.83790    0.69590    1.000
    C117     C        0.20360    0.77900    0.54600    1.000
    H96      H        0.16530    0.77790    0.58640    1.000
    C118     C        0.12760    0.68490    0.73070    1.000
    C119     C        0.93750    0.66750    0.78590    1.000
    H97      H        0.97970    0.65660    0.82500    1.000
    C120     C        0.00890    0.78380    0.48540    1.000
    C121     C        0.82730    0.80130    0.53580    1.000
    H98      H        0.78710    0.81640    0.57130    1.000
    C122     C        0.94370    0.76190    0.43360    1.000
    H99      H        0.98140    0.74820    0.39630    1.000
    C123     C        0.32260    0.78350    0.43440    1.000
    H100     H        0.36360    0.78600    0.39500    1.000
    N20      N        0.54450    0.60950    0.69660    1.000
    N21      N        0.44960    0.34600    0.05460    1.000
    C124     C        0.56350    0.68600    0.88140    1.000
    C125     C        0.70020    0.84020    0.70500    1.000
    O21      O        0.57410    0.67943    0.99990    1.000
    H101     H        0.64200    0.67800    0.02200    1.000
    O22      O        0.53100    0.77277    0.25280    1.000
    H102     H        0.47700    0.79000    0.27300    1.000
    O23      O        0.53370    0.71866    0.14240    1.000
    C126     C        0.49960    0.50710    0.64100    1.000
    C127     C        0.45260    0.52260    0.70030    1.000
    H103     H        0.40430    0.49830    0.72300    1.000
    C128     C        0.59060    0.59450    0.63990    1.000
    H104     H        0.63910    0.61960    0.61860    1.000
    C129     C        0.18990    0.75980    0.04100    1.000
    H105     H        0.15150    0.75090    0.08000    1.000
    C130     C        0.10050    0.67540    0.24100    1.000
    C131     C        0.16080    0.66690    0.18260    1.000
    H106     H        0.11900    0.65850    0.14250    1.000
    C132     C        0.30860    0.75610    0.03960    1.000
    H107     H        0.35110    0.74500    0.07860    1.000
    C133     C        0.55620    0.80500    0.19690    1.000
    H108     H        0.49490    0.83370    0.19120    1.000
    C134     C        0.30650    0.78470    0.93220    1.000
    H109     H        0.34720    0.79450    0.89430    1.000
    C135     C        0.67490    0.83220    0.20640    1.000
    C136     C        0.75840    0.81370    0.25250    1.000
    H110     H        0.73940    0.78490    0.28110    1.000
    C137     C        0.49040    0.50260    0.14300    1.000
    C138     C        0.48790    0.44400    0.54420    1.000
    H111     H        0.51150    0.47270    0.51650    1.000
    C139     C        0.52220    0.43630    0.05260    1.000
    H112     H        0.56540    0.46300    0.03040    1.000
    C140     C        0.86860    0.83640    0.25770    1.000
    H113     H        0.92530    0.82240    0.28890    1.000
    C141     C        0.46760    0.39350    0.51850    1.000
    H114     H        0.47790    0.38820    0.47290    1.000
    C142     C        0.49920    0.51020    0.21040    1.000
    H115     H        0.49390    0.48010    0.23930    1.000
    N22      N        0.52240    0.60580    0.19760    1.000
    C143     C        0.41850    0.36010    0.61670    1.000
    H116     H        0.39280    0.33070    0.64260    1.000
    C144     C        0.51590    0.56160    0.23530    1.000
    H117     H        0.52310    0.56590    0.28180    1.000
    C145     C        0.50610    0.38560    0.02510    1.000
    H118     H        0.53680    0.37860    0.98340    1.000
    C146     C        0.41460    0.40730    0.14350    1.000
    H119     H        0.38110    0.41340    0.18470    1.000
    N23      N        0.43430    0.35160    0.55380    1.000
    C147     C        0.43770    0.41000    0.64700    1.000
    H120     H        0.42570    0.41400    0.69270    1.000
    O24      O        0.56410    0.79215    0.08140    1.000
    C148     C        0.40390    0.35720    0.11310    1.000
    H121     H        0.36240    0.32940    0.13440    1.000
    C149     C        0.79500    0.81950    0.74160    1.000
    H122     H        0.78610    0.78730    0.76640    1.000
    N24      N        0.34610    0.68220    0.24010    1.000
    C150     C        0.45210    0.61900    0.45600    1.000
    C151     C        0.12560    0.77640    0.98530    1.000
    C152     C        0.90290    0.84530    0.74260    1.000
    H123     H        0.96710    0.83030    0.76770    1.000
    C153     C        0.55140    0.76910    0.13560    1.000
    C154     C        0.28110    0.67100    0.18500    1.000
    H124     H        0.32030    0.66550    0.14530    1.000
    C155     C        0.89660    0.87910    0.21800    1.000
    H125     H        0.97210    0.89510    0.22180    1.000
    C156     C        0.81360    0.89840    0.17260    1.000
    H126     H        0.83250    0.92780    0.14480    1.000
    C157     C        0.18700    0.78870    0.92950    1.000
    H127     H        0.14630    0.79970    0.88990    1.000
    C158     C        0.47520    0.44850    0.11280    1.000
    C159     C        0.19300    0.69450    0.78900    1.000
    H128     H        0.15560    0.69890    0.82940    1.000
    C160     C        0.16930    0.68190    0.29780    1.000
    H129     H        0.13440    0.68330    0.33920    1.000
    C161     C        0.50930    0.59820    0.13260    1.000
    H130     H        0.51160    0.62910    0.10470    1.000
    C162     C        0.31180    0.69750    0.78710    1.000
    H131     H        0.35500    0.70470    0.82720    1.000
    C163     C        0.47690    0.57330    0.72560    1.000
    H132     H        0.44380    0.58320    0.76600    1.000
    C164     C        0.70300    0.87550    0.16660    1.000
    H133     H        0.64650    0.88950    0.13530    1.000
    C165     C        0.28720    0.68630    0.29460    1.000
    H134     H        0.33110    0.69280    0.33460    1.000
    C166     C        0.20180    0.78680    0.42970    1.000
    H135     H        0.16190    0.79110    0.38800    1.000
    C167     C        0.47410    0.45360    0.61100    1.000
    C168     C        0.36120    0.64020    0.48870    1.000
    H136     H        0.37030    0.67440    0.50980    1.000
    C169     C        0.57120    0.54430    0.61110    1.000
    H137     H        0.60650    0.53530    0.57120    1.000
    C170     C        0.49270    0.54810    0.10400    1.000
    H138     H        0.48300    0.54500    0.05740    1.000
    C171     C        0.57890    0.64820    0.94130    1.000
    H139     H        0.65810    0.63110    0.94050    1.000
    C172     C        0.48820    0.60360    0.93620    1.000
    C173     C        0.82090    0.91510    0.67370    1.000
    H140     H        0.82900    0.94890    0.65200    1.000
    C174     C        0.37460    0.61480    0.94670    1.000
    H141     H        0.35200    0.65010    0.96000    1.000
    C175     C        0.71420    0.88900    0.67170    1.000
    H142     H        0.64960    0.90440    0.64740    1.000
    C176     C        0.91750    0.89150    0.70800    1.000
    H143     H        0.99250    0.90790    0.70700    1.000
    C177     C        0.24040    0.56400    0.46180    1.000
    H144     H        0.16820    0.54510    0.46290    1.000
    C178     C        0.44060    0.56950    0.42680    1.000
    H145     H        0.50390    0.55370    0.40510    1.000
    C179     C        0.33350    0.54240    0.42940    1.000
    H146     H        0.32440    0.50820    0.40830    1.000
    C180     C        0.52020    0.55260    0.91580    1.000
    H147     H        0.59980    0.54610    0.90720    1.000
    C181     C        0.32880    0.52190    0.91860    1.000
    H148     H        0.27330    0.49340    0.91350    1.000
    C182     C        0.28980    0.57300    0.93730    1.000
    H149     H        0.20930    0.57970    0.94360    1.000
    C183     C        0.44170    0.51110    0.90760    1.000
    H150     H        0.46570    0.47600    0.89450    1.000
    C184     C        0.25490    0.61260    0.49160    1.000
    H151     H        0.19270    0.62800    0.51470    1.000
    H152     H        0.65770    0.68600    0.52280    1.000
