# CIF file generated by openbabel 3.1.0, see https://openbabel.org
data_I
_chemical_name_common 'image0'
_cell_length_a 6.8223
_cell_length_b 15.2689
_cell_length_c 14.9109
_cell_angle_alpha 90
_cell_angle_beta 90
_cell_angle_gamma 90
_space_group_name_H-M_alt 'P 1'
_space_group_name_Hall 'P 1'
loop_
    _symmetry_equiv_pos_as_xyz
    x,y,z
loop_
    _atom_site_label
    _atom_site_type_symbol
    _atom_site_fract_x
    _atom_site_fract_y
    _atom_site_fract_z
    _atom_site_occupancy
    O1       O        0.63540    0.34148    0.82931    1.000
    O2       O        0.30810    0.34159    0.84020    1.000
    C1       C        0.47600    0.36797    0.86210    1.000
    C2       C        0.48820    0.43681    0.93332    1.000
    C3       C        0.66990    0.46728    0.96138    1.000
    H1       H        0.78370    0.44510    0.93560    1.000
    C4       C        0.68210    0.53052    0.02752    1.000
    H2       H        0.80390    0.55120    0.04580    1.000
    O3       O        0.86460    0.65852    0.32931    1.000
    O4       O        0.19190    0.65841    0.34020    1.000
    C5       C        0.02400    0.63203    0.36210    1.000
    C6       C        0.01180    0.56319    0.43332    1.000
    C7       C        0.83010    0.53272    0.46138    1.000
    H3       H        0.71630    0.55490    0.43560    1.000
    C8       C        0.81790    0.46948    0.52752    1.000
    H4       H        0.69610    0.44880    0.54580    1.000
    O5       O        0.36460    0.84148    0.17069    1.000
    O6       O        0.69190    0.84159    0.15980    1.000
    C9       C        0.52400    0.86797    0.13790    1.000
    C10      C        0.51180    0.93681    0.06668    1.000
    C11      C        0.33010    0.96728    0.03862    1.000
    H5       H        0.21630    0.94510    0.06440    1.000
    C12      C        0.31790    0.03052    0.97248    1.000
    H6       H        0.19610    0.05120    0.95420    1.000
    O7       O        0.13540    0.15852    0.67069    1.000
    O8       O        0.80810    0.15841    0.65980    1.000
    C13      C        0.97600    0.13203    0.63790    1.000
    C14      C        0.98820    0.06319    0.56668    1.000
    C15      C        0.16990    0.03272    0.53862    1.000
    H7       H        0.28370    0.05490    0.56440    1.000
    C16      C        0.18210    0.96948    0.47248    1.000
    H8       H        0.30390    0.94880    0.45420    1.000
    O9       O        0.36460    0.65852    0.17069    1.000
    O10      O        0.69190    0.65841    0.15980    1.000
    C17      C        0.52400    0.63203    0.13790    1.000
    C18      C        0.51180    0.56319    0.06668    1.000
    C19      C        0.33010    0.53272    0.03862    1.000
    H9       H        0.21630    0.55490    0.06440    1.000
    C20      C        0.31790    0.46948    0.97248    1.000
    H10      H        0.19610    0.44880    0.95420    1.000
    O11      O        0.13540    0.34148    0.67069    1.000
    O12      O        0.80810    0.34159    0.65980    1.000
    C21      C        0.97600    0.36797    0.63790    1.000
    C22      C        0.98820    0.43681    0.56668    1.000
    C23      C        0.16990    0.46728    0.53862    1.000
    H11      H        0.28370    0.44510    0.56440    1.000
    C24      C        0.18210    0.53052    0.47248    1.000
    H12      H        0.30390    0.55120    0.45420    1.000
    O13      O        0.63540    0.15852    0.82931    1.000
    O14      O        0.30810    0.15841    0.84020    1.000
    C25      C        0.47600    0.13203    0.86210    1.000
    C26      C        0.48820    0.06319    0.93332    1.000
    C27      C        0.66990    0.03272    0.96138    1.000
    H13      H        0.78370    0.05490    0.93560    1.000
    C28      C        0.68210    0.96948    0.02752    1.000
    H14      H        0.80390    0.94880    0.04580    1.000
    O15      O        0.86460    0.84148    0.32931    1.000
    O16      O        0.19190    0.84159    0.34020    1.000
    C29      C        0.02400    0.86797    0.36210    1.000
    C30      C        0.01180    0.93681    0.43332    1.000
    C31      C        0.83010    0.96728    0.46138    1.000
    H15      H        0.71630    0.94510    0.43560    1.000
    C32      C        0.81790    0.03052    0.52752    1.000
    H16      H        0.69610    0.05120    0.54580    1.000
    V1       V        0.18782    0.25000    0.76202    1.000
    O17      O        0.97000    0.25000    0.80487    1.000
    V2       V        0.31218    0.75000    0.26202    1.000
    O18      O        0.53000    0.75000    0.30487    1.000
    V3       V        0.81218    0.75000    0.23798    1.000
    O19      O        0.03000    0.75000    0.19513    1.000
    V4       V        0.68782    0.25000    0.73798    1.000
    O20      O        0.47000    0.25000    0.69513    1.000
