# CIF file generated by openbabel 3.1.0, see https://openbabel.org
data_I
_chemical_name_common 'image0'
_cell_length_a 34.0239
_cell_length_b 34.0239
_cell_length_c 34.0239
_cell_angle_alpha 90
_cell_angle_beta 90
_cell_angle_gamma 90
_space_group_name_H-M_alt 'P 1'
_space_group_name_Hall 'P 1'
loop_
    _symmetry_equiv_pos_as_xyz
    x,y,z
loop_
    _atom_site_label
    _atom_site_type_symbol
    _atom_site_fract_x
    _atom_site_fract_y
    _atom_site_fract_z
    _atom_site_occupancy
    C1       C        0.28290    0.76400    0.41880    1.000
    N1       N        0.28300    0.76420    0.46020    1.000
    N2       N        0.30030    0.85790    0.54240    1.000
    C2       C        0.28290    0.26400    0.91880    1.000
    N3       N        0.28300    0.26420    0.96020    1.000
    N4       N        0.30030    0.35790    0.04240    1.000
    C3       C        0.78290    0.76400    0.91880    1.000
    N5       N        0.78300    0.76420    0.96020    1.000
    N6       N        0.80030    0.85790    0.04240    1.000
    C4       C        0.78290    0.26400    0.41880    1.000
    N7       N        0.78300    0.26420    0.46020    1.000
    N8       N        0.80030    0.35790    0.54240    1.000
    C5       C        0.71710    0.23600    0.41880    1.000
    N9       N        0.71700    0.23580    0.46020    1.000
    N10      N        0.69970    0.14210    0.54240    1.000
    C6       C        0.71710    0.73600    0.91880    1.000
    N11      N        0.71700    0.73580    0.96020    1.000
    N12      N        0.69970    0.64210    0.04240    1.000
    C7       C        0.21710    0.23600    0.91880    1.000
    N13      N        0.21700    0.23580    0.96020    1.000
    N14      N        0.19970    0.14210    0.04240    1.000
    C8       C        0.21710    0.73600    0.41880    1.000
    N15      N        0.21700    0.73580    0.46020    1.000
    N16      N        0.19970    0.64210    0.54240    1.000
    C9       C        0.71710    0.76400    0.58120    1.000
    N17      N        0.71700    0.76420    0.53980    1.000
    N18      N        0.69970    0.85790    0.45760    1.000
    C10      C        0.71710    0.26400    0.08120    1.000
    N19      N        0.71700    0.26420    0.03980    1.000
    N20      N        0.69970    0.35790    0.95760    1.000
    C11      C        0.21710    0.76400    0.08120    1.000
    N21      N        0.21700    0.76420    0.03980    1.000
    N22      N        0.19970    0.85790    0.95760    1.000
    C12      C        0.21710    0.26400    0.58120    1.000
    N23      N        0.21700    0.26420    0.53980    1.000
    N24      N        0.19970    0.35790    0.45760    1.000
    C13      C        0.28290    0.23600    0.58120    1.000
    N25      N        0.28300    0.23580    0.53980    1.000
    N26      N        0.30030    0.14210    0.45760    1.000
    C14      C        0.28290    0.73600    0.08120    1.000
    N27      N        0.28300    0.73580    0.03980    1.000
    N28      N        0.30030    0.64210    0.95760    1.000
    C15      C        0.78290    0.23600    0.08120    1.000
    N29      N        0.78300    0.23580    0.03980    1.000
    N30      N        0.80030    0.14210    0.95760    1.000
    C16      C        0.78290    0.73600    0.58120    1.000
    N31      N        0.78300    0.73580    0.53980    1.000
    N32      N        0.80030    0.64210    0.45760    1.000
    C17      C        0.41880    0.28290    0.76400    1.000
    N33      N        0.46020    0.28300    0.76420    1.000
    N34      N        0.54240    0.30030    0.85790    1.000
    C18      C        0.41880    0.78290    0.26400    1.000
    N35      N        0.46020    0.78300    0.26420    1.000
    N36      N        0.54240    0.80030    0.35790    1.000
    C19      C        0.91880    0.28290    0.26400    1.000
    N37      N        0.96020    0.28300    0.26420    1.000
    N38      N        0.04240    0.30030    0.35790    1.000
    C20      C        0.91880    0.78290    0.76400    1.000
    N39      N        0.96020    0.78300    0.76420    1.000
    N40      N        0.04240    0.80030    0.85790    1.000
    C21      C        0.41880    0.71710    0.23600    1.000
    N41      N        0.46020    0.71700    0.23580    1.000
    N42      N        0.54240    0.69970    0.14210    1.000
    C22      C        0.41880    0.21710    0.73600    1.000
    N43      N        0.46020    0.21700    0.73580    1.000
    N44      N        0.54240    0.19970    0.64210    1.000
    C23      C        0.91880    0.71710    0.73600    1.000
    N45      N        0.96020    0.71700    0.73580    1.000
    N46      N        0.04240    0.69970    0.64210    1.000
    C24      C        0.91880    0.21710    0.23600    1.000
    N47      N        0.96020    0.21700    0.23580    1.000
    N48      N        0.04240    0.19970    0.14210    1.000
    C25      C        0.58120    0.71710    0.76400    1.000
    N49      N        0.53980    0.71700    0.76420    1.000
    N50      N        0.45760    0.69970    0.85790    1.000
    C26      C        0.58120    0.21710    0.26400    1.000
    N51      N        0.53980    0.21700    0.26420    1.000
    N52      N        0.45760    0.19970    0.35790    1.000
    C27      C        0.08120    0.71710    0.26400    1.000
    N53      N        0.03980    0.71700    0.26420    1.000
    N54      N        0.95760    0.69970    0.35790    1.000
    C28      C        0.08120    0.21710    0.76400    1.000
    N55      N        0.03980    0.21700    0.76420    1.000
    N56      N        0.95760    0.19970    0.85790    1.000
    C29      C        0.58120    0.28290    0.23600    1.000
    N57      N        0.53980    0.28300    0.23580    1.000
    N58      N        0.45760    0.30030    0.14210    1.000
    C30      C        0.58120    0.78290    0.73600    1.000
    N59      N        0.53980    0.78300    0.73580    1.000
    N60      N        0.45760    0.80030    0.64210    1.000
    C31      C        0.08120    0.28290    0.73600    1.000
    N61      N        0.03980    0.28300    0.73580    1.000
    N62      N        0.95760    0.30030    0.64210    1.000
    C32      C        0.08120    0.78290    0.23600    1.000
    N63      N        0.03980    0.78300    0.23580    1.000
    N64      N        0.95760    0.80030    0.14210    1.000
    C33      C        0.76400    0.41880    0.28290    1.000
    N65      N        0.76420    0.46020    0.28300    1.000
    N66      N        0.85790    0.54240    0.30030    1.000
    C34      C        0.76400    0.91880    0.78290    1.000
    N67      N        0.76420    0.96020    0.78300    1.000
    N68      N        0.85790    0.04240    0.80030    1.000
    C35      C        0.26400    0.41880    0.78290    1.000
    N69      N        0.26420    0.46020    0.78300    1.000
    N70      N        0.35790    0.54240    0.80030    1.000
    C36      C        0.26400    0.91880    0.28290    1.000
    N71      N        0.26420    0.96020    0.28300    1.000
    N72      N        0.35790    0.04240    0.30030    1.000
    C37      C        0.23600    0.41880    0.71710    1.000
    N73      N        0.23580    0.46020    0.71700    1.000
    N74      N        0.14210    0.54240    0.69970    1.000
    C38      C        0.23600    0.91880    0.21710    1.000
    N75      N        0.23580    0.96020    0.21700    1.000
    N76      N        0.14210    0.04240    0.19970    1.000
    C39      C        0.73600    0.41880    0.21710    1.000
    N77      N        0.73580    0.46020    0.21700    1.000
    N78      N        0.64210    0.54240    0.19970    1.000
    C40      C        0.73600    0.91880    0.71710    1.000
    N79      N        0.73580    0.96020    0.71700    1.000
    N80      N        0.64210    0.04240    0.69970    1.000
    C41      C        0.76400    0.58120    0.71710    1.000
    N81      N        0.76420    0.53980    0.71700    1.000
    N82      N        0.85790    0.45760    0.69970    1.000
    C42      C        0.76400    0.08120    0.21710    1.000
    N83      N        0.76420    0.03980    0.21700    1.000
    N84      N        0.85790    0.95760    0.19970    1.000
    C43      C        0.26400    0.58120    0.21710    1.000
    N85      N        0.26420    0.53980    0.21700    1.000
    N86      N        0.35790    0.45760    0.19970    1.000
    C44      C        0.26400    0.08120    0.71710    1.000
    N87      N        0.26420    0.03980    0.71700    1.000
    N88      N        0.35790    0.95760    0.69970    1.000
    C45      C        0.23600    0.58120    0.28290    1.000
    N89      N        0.23580    0.53980    0.28300    1.000
    N90      N        0.14210    0.45760    0.30030    1.000
    C46      C        0.23600    0.08120    0.78290    1.000
    N91      N        0.23580    0.03980    0.78300    1.000
    N92      N        0.14210    0.95760    0.80030    1.000
    C47      C        0.73600    0.58120    0.78290    1.000
    N93      N        0.73580    0.53980    0.78300    1.000
    N94      N        0.64210    0.45760    0.80030    1.000
    C48      C        0.73600    0.08120    0.28290    1.000
    N95      N        0.73580    0.03980    0.28300    1.000
    N96      N        0.64210    0.95760    0.30030    1.000
    C49      C        0.76400    0.28290    0.58120    1.000
    N97      N        0.76420    0.28300    0.53980    1.000
    N98      N        0.85790    0.30030    0.45760    1.000
    C50      C        0.76400    0.78290    0.08120    1.000
    N99      N        0.76420    0.78300    0.03980    1.000
    N100     N        0.85790    0.80030    0.95760    1.000
    C51      C        0.26400    0.28290    0.08120    1.000
    N101     N        0.26420    0.28300    0.03980    1.000
    N102     N        0.35790    0.30030    0.95760    1.000
    C52      C        0.26400    0.78290    0.58120    1.000
    N103     N        0.26420    0.78300    0.53980    1.000
    N104     N        0.35790    0.80030    0.45760    1.000
    C53      C        0.23600    0.71710    0.58120    1.000
    N105     N        0.23580    0.71700    0.53980    1.000
    N106     N        0.14210    0.69970    0.45760    1.000
    C54      C        0.23600    0.21710    0.08120    1.000
    N107     N        0.23580    0.21700    0.03980    1.000
    N108     N        0.14210    0.19970    0.95760    1.000
    C55      C        0.73600    0.71710    0.08120    1.000
    N109     N        0.73580    0.71700    0.03980    1.000
    N110     N        0.64210    0.69970    0.95760    1.000
    C56      C        0.73600    0.21710    0.58120    1.000
    N111     N        0.73580    0.21700    0.53980    1.000
    N112     N        0.64210    0.19970    0.45760    1.000
    C57      C        0.76400    0.71710    0.41880    1.000
    N113     N        0.76420    0.71700    0.46020    1.000
    N114     N        0.85790    0.69970    0.54240    1.000
    C58      C        0.76400    0.21710    0.91880    1.000
    N115     N        0.76420    0.21700    0.96020    1.000
    N116     N        0.85790    0.19970    0.04240    1.000
    C59      C        0.26400    0.71710    0.91880    1.000
    N117     N        0.26420    0.71700    0.96020    1.000
    N118     N        0.35790    0.69970    0.04240    1.000
    C60      C        0.26400    0.21710    0.41880    1.000
    N119     N        0.26420    0.21700    0.46020    1.000
    N120     N        0.35790    0.19970    0.54240    1.000
    C61      C        0.23600    0.28290    0.41880    1.000
    N121     N        0.23580    0.28300    0.46020    1.000
    N122     N        0.14210    0.30030    0.54240    1.000
    C62      C        0.23600    0.78290    0.91880    1.000
    N123     N        0.23580    0.78300    0.96020    1.000
    N124     N        0.14210    0.80030    0.04240    1.000
    C63      C        0.73600    0.28290    0.91880    1.000
    N125     N        0.73580    0.28300    0.96020    1.000
    N126     N        0.64210    0.30030    0.04240    1.000
    C64      C        0.73600    0.78290    0.41880    1.000
    N127     N        0.73580    0.78300    0.46020    1.000
    N128     N        0.64210    0.80030    0.54240    1.000
    C65      C        0.28290    0.41880    0.23600    1.000
    N129     N        0.28300    0.46020    0.23580    1.000
    N130     N        0.30030    0.54240    0.14210    1.000
    C66      C        0.28290    0.91880    0.73600    1.000
    N131     N        0.28300    0.96020    0.73580    1.000
    N132     N        0.30030    0.04240    0.64210    1.000
    C67      C        0.78290    0.41880    0.73600    1.000
    N133     N        0.78300    0.46020    0.73580    1.000
    N134     N        0.80030    0.54240    0.64210    1.000
    C68      C        0.78290    0.91880    0.23600    1.000
    N135     N        0.78300    0.96020    0.23580    1.000
    N136     N        0.80030    0.04240    0.14210    1.000
    C69      C        0.71710    0.41880    0.76400    1.000
    N137     N        0.71700    0.46020    0.76420    1.000
    N138     N        0.69970    0.54240    0.85790    1.000
    C70      C        0.71710    0.91880    0.26400    1.000
    N139     N        0.71700    0.96020    0.26420    1.000
    N140     N        0.69970    0.04240    0.35790    1.000
    C71      C        0.21710    0.41880    0.26400    1.000
    N141     N        0.21700    0.46020    0.26420    1.000
    N142     N        0.19970    0.54240    0.35790    1.000
    C72      C        0.21710    0.91880    0.76400    1.000
    N143     N        0.21700    0.96020    0.76420    1.000
    N144     N        0.19970    0.04240    0.85790    1.000
    C73      C        0.71710    0.58120    0.23600    1.000
    N145     N        0.71700    0.53980    0.23580    1.000
    N146     N        0.69970    0.45760    0.14210    1.000
    C74      C        0.71710    0.08120    0.73600    1.000
    N147     N        0.71700    0.03980    0.73580    1.000
    N148     N        0.69970    0.95760    0.64210    1.000
    C75      C        0.21710    0.58120    0.73600    1.000
    N149     N        0.21700    0.53980    0.73580    1.000
    N150     N        0.19970    0.45760    0.64210    1.000
    C76      C        0.21710    0.08120    0.23600    1.000
    N151     N        0.21700    0.03980    0.23580    1.000
    N152     N        0.19970    0.95760    0.14210    1.000
    C77      C        0.28290    0.58120    0.76400    1.000
    N153     N        0.28300    0.53980    0.76420    1.000
    N154     N        0.30030    0.45760    0.85790    1.000
    C78      C        0.28290    0.08120    0.26400    1.000
    N155     N        0.28300    0.03980    0.26420    1.000
    N156     N        0.30030    0.95760    0.35790    1.000
    C79      C        0.78290    0.58120    0.26400    1.000
    N157     N        0.78300    0.53980    0.26420    1.000
    N158     N        0.80030    0.45760    0.35790    1.000
    C80      C        0.78290    0.08120    0.76400    1.000
    N159     N        0.78300    0.03980    0.76420    1.000
    N160     N        0.80030    0.95760    0.85790    1.000
    C81      C        0.41880    0.76400    0.71710    1.000
    N161     N        0.46020    0.76420    0.71700    1.000
    N162     N        0.54240    0.85790    0.69970    1.000
    C82      C        0.41880    0.26400    0.21710    1.000
    N163     N        0.46020    0.26420    0.21700    1.000
    N164     N        0.54240    0.35790    0.19970    1.000
    C83      C        0.91880    0.76400    0.21710    1.000
    N165     N        0.96020    0.76420    0.21700    1.000
    N166     N        0.04240    0.85790    0.19970    1.000
    C84      C        0.91880    0.26400    0.71710    1.000
    N167     N        0.96020    0.26420    0.71700    1.000
    N168     N        0.04240    0.35790    0.69970    1.000
    C85      C        0.41880    0.23600    0.28290    1.000
    N169     N        0.46020    0.23580    0.28300    1.000
    N170     N        0.54240    0.14210    0.30030    1.000
    C86      C        0.41880    0.73600    0.78290    1.000
    N171     N        0.46020    0.73580    0.78300    1.000
    N172     N        0.54240    0.64210    0.80030    1.000
    C87      C        0.91880    0.23600    0.78290    1.000
    N173     N        0.96020    0.23580    0.78300    1.000
    N174     N        0.04240    0.14210    0.80030    1.000
    C88      C        0.91880    0.73600    0.28290    1.000
    N175     N        0.96020    0.73580    0.28300    1.000
    N176     N        0.04240    0.64210    0.30030    1.000
    C89      C        0.58120    0.76400    0.28290    1.000
    N177     N        0.53980    0.76420    0.28300    1.000
    N178     N        0.45760    0.85790    0.30030    1.000
    C90      C        0.58120    0.26400    0.78290    1.000
    N179     N        0.53980    0.26420    0.78300    1.000
    N180     N        0.45760    0.35790    0.80030    1.000
    C91      C        0.08120    0.76400    0.78290    1.000
    N181     N        0.03980    0.76420    0.78300    1.000
    N182     N        0.95760    0.85790    0.80030    1.000
    C92      C        0.08120    0.26400    0.28290    1.000
    N183     N        0.03980    0.26420    0.28300    1.000
    N184     N        0.95760    0.35790    0.30030    1.000
    C93      C        0.58120    0.23600    0.71710    1.000
    N185     N        0.53980    0.23580    0.71700    1.000
    N186     N        0.45760    0.14210    0.69970    1.000
    C94      C        0.58120    0.73600    0.21710    1.000
    N187     N        0.53980    0.73580    0.21700    1.000
    N188     N        0.45760    0.64210    0.19970    1.000
    C95      C        0.08120    0.23600    0.21710    1.000
    N189     N        0.03980    0.23580    0.21700    1.000
    N190     N        0.95760    0.14210    0.19970    1.000
    C96      C        0.08120    0.73600    0.71710    1.000
    N191     N        0.03980    0.73580    0.71700    1.000
    N192     N        0.95760    0.64210    0.69970    1.000
    C97      C        0.71710    0.23600    0.58120    1.000
    N193     N        0.71700    0.23580    0.53980    1.000
    N194     N        0.69970    0.14210    0.45760    1.000
    C98      C        0.71710    0.73600    0.08120    1.000
    N195     N        0.71700    0.73580    0.03980    1.000
    N196     N        0.69970    0.64210    0.95760    1.000
    C99      C        0.21710    0.23600    0.08120    1.000
    N197     N        0.21700    0.23580    0.03980    1.000
    N198     N        0.19970    0.14210    0.95760    1.000
    C100     C        0.21710    0.73600    0.58120    1.000
    N199     N        0.21700    0.73580    0.53980    1.000
    N200     N        0.19970    0.64210    0.45760    1.000
    C101     C        0.28290    0.76400    0.58120    1.000
    N201     N        0.28300    0.76420    0.53980    1.000
    N202     N        0.30030    0.85790    0.45760    1.000
    C102     C        0.28290    0.26400    0.08120    1.000
    N203     N        0.28300    0.26420    0.03980    1.000
    N204     N        0.30030    0.35790    0.95760    1.000
    C103     C        0.78290    0.76400    0.08120    1.000
    N205     N        0.78300    0.76420    0.03980    1.000
    N206     N        0.80030    0.85790    0.95760    1.000
    C104     C        0.78290    0.26400    0.58120    1.000
    N207     N        0.78300    0.26420    0.53980    1.000
    N208     N        0.80030    0.35790    0.45760    1.000
    C105     C        0.28290    0.23600    0.41880    1.000
    N209     N        0.28300    0.23580    0.46020    1.000
    N210     N        0.30030    0.14210    0.54240    1.000
    C106     C        0.28290    0.73600    0.91880    1.000
    N211     N        0.28300    0.73580    0.96020    1.000
    N212     N        0.30030    0.64210    0.04240    1.000
    C107     C        0.78290    0.23600    0.91880    1.000
    N213     N        0.78300    0.23580    0.96020    1.000
    N214     N        0.80030    0.14210    0.04240    1.000
    C108     C        0.78290    0.73600    0.41880    1.000
    N215     N        0.78300    0.73580    0.46020    1.000
    N216     N        0.80030    0.64210    0.54240    1.000
    C109     C        0.71710    0.76400    0.41880    1.000
    N217     N        0.71700    0.76420    0.46020    1.000
    N218     N        0.69970    0.85790    0.54240    1.000
    C110     C        0.71710    0.26400    0.91880    1.000
    N219     N        0.71700    0.26420    0.96020    1.000
    N220     N        0.69970    0.35790    0.04240    1.000
    C111     C        0.21710    0.76400    0.91880    1.000
    N221     N        0.21700    0.76420    0.96020    1.000
    N222     N        0.19970    0.85790    0.04240    1.000
    C112     C        0.21710    0.26400    0.41880    1.000
    N223     N        0.21700    0.26420    0.46020    1.000
    N224     N        0.19970    0.35790    0.54240    1.000
    C113     C        0.58120    0.71710    0.23600    1.000
    N225     N        0.53980    0.71700    0.23580    1.000
    N226     N        0.45760    0.69970    0.14210    1.000
    C114     C        0.58120    0.21710    0.73600    1.000
    N227     N        0.53980    0.21700    0.73580    1.000
    N228     N        0.45760    0.19970    0.64210    1.000
    C115     C        0.08120    0.71710    0.73600    1.000
    N229     N        0.03980    0.71700    0.73580    1.000
    N230     N        0.95760    0.69970    0.64210    1.000
    C116     C        0.08120    0.21710    0.23600    1.000
    N231     N        0.03980    0.21700    0.23580    1.000
    N232     N        0.95760    0.19970    0.14210    1.000
    C117     C        0.58120    0.28290    0.76400    1.000
    N233     N        0.53980    0.28300    0.76420    1.000
    N234     N        0.45760    0.30030    0.85790    1.000
    C118     C        0.58120    0.78290    0.26400    1.000
    N235     N        0.53980    0.78300    0.26420    1.000
    N236     N        0.45760    0.80030    0.35790    1.000
    C119     C        0.08120    0.28290    0.26400    1.000
    N237     N        0.03980    0.28300    0.26420    1.000
    N238     N        0.95760    0.30030    0.35790    1.000
    C120     C        0.08120    0.78290    0.76400    1.000
    N239     N        0.03980    0.78300    0.76420    1.000
    N240     N        0.95760    0.80030    0.85790    1.000
    C121     C        0.41880    0.28290    0.23600    1.000
    N241     N        0.46020    0.28300    0.23580    1.000
    N242     N        0.54240    0.30030    0.14210    1.000
    C122     C        0.41880    0.78290    0.73600    1.000
    N243     N        0.46020    0.78300    0.73580    1.000
    N244     N        0.54240    0.80030    0.64210    1.000
    C123     C        0.91880    0.28290    0.73600    1.000
    N245     N        0.96020    0.28300    0.73580    1.000
    N246     N        0.04240    0.30030    0.64210    1.000
    C124     C        0.91880    0.78290    0.23600    1.000
    N247     N        0.96020    0.78300    0.23580    1.000
    N248     N        0.04240    0.80030    0.14210    1.000
    C125     C        0.41880    0.71710    0.76400    1.000
    N249     N        0.46020    0.71700    0.76420    1.000
    N250     N        0.54240    0.69970    0.85790    1.000
    C126     C        0.41880    0.21710    0.26400    1.000
    N251     N        0.46020    0.21700    0.26420    1.000
    N252     N        0.54240    0.19970    0.35790    1.000
    C127     C        0.91880    0.71710    0.26400    1.000
    N253     N        0.96020    0.71700    0.26420    1.000
    N254     N        0.04240    0.69970    0.35790    1.000
    C128     C        0.91880    0.21710    0.76400    1.000
    N255     N        0.96020    0.21700    0.76420    1.000
    N256     N        0.04240    0.19970    0.85790    1.000
    C129     C        0.23600    0.58120    0.71710    1.000
    N257     N        0.23580    0.53980    0.71700    1.000
    N258     N        0.14210    0.45760    0.69970    1.000
    C130     C        0.23600    0.08120    0.21710    1.000
    N259     N        0.23580    0.03980    0.21700    1.000
    N260     N        0.14210    0.95760    0.19970    1.000
    C131     C        0.73600    0.58120    0.21710    1.000
    N261     N        0.73580    0.53980    0.21700    1.000
    N262     N        0.64210    0.45760    0.19970    1.000
    C132     C        0.73600    0.08120    0.71710    1.000
    N263     N        0.73580    0.03980    0.71700    1.000
    N264     N        0.64210    0.95760    0.69970    1.000
    C133     C        0.76400    0.58120    0.28290    1.000
    N265     N        0.76420    0.53980    0.28300    1.000
    N266     N        0.85790    0.45760    0.30030    1.000
    C134     C        0.76400    0.08120    0.78290    1.000
    N267     N        0.76420    0.03980    0.78300    1.000
    N268     N        0.85790    0.95760    0.80030    1.000
    C135     C        0.26400    0.58120    0.78290    1.000
    N269     N        0.26420    0.53980    0.78300    1.000
    N270     N        0.35790    0.45760    0.80030    1.000
    C136     C        0.26400    0.08120    0.28290    1.000
    N271     N        0.26420    0.03980    0.28300    1.000
    N272     N        0.35790    0.95760    0.30030    1.000
    C137     C        0.23600    0.41880    0.28290    1.000
    N273     N        0.23580    0.46020    0.28300    1.000
    N274     N        0.14210    0.54240    0.30030    1.000
    C138     C        0.23600    0.91880    0.78290    1.000
    N275     N        0.23580    0.96020    0.78300    1.000
    N276     N        0.14210    0.04240    0.80030    1.000
    C139     C        0.73600    0.41880    0.78290    1.000
    N277     N        0.73580    0.46020    0.78300    1.000
    N278     N        0.64210    0.54240    0.80030    1.000
    C140     C        0.73600    0.91880    0.28290    1.000
    N279     N        0.73580    0.96020    0.28300    1.000
    N280     N        0.64210    0.04240    0.30030    1.000
    C141     C        0.76400    0.41880    0.71710    1.000
    N281     N        0.76420    0.46020    0.71700    1.000
    N282     N        0.85790    0.54240    0.69970    1.000
    C142     C        0.76400    0.91880    0.21710    1.000
    N283     N        0.76420    0.96020    0.21700    1.000
    N284     N        0.85790    0.04240    0.19970    1.000
    C143     C        0.26400    0.41880    0.21710    1.000
    N285     N        0.26420    0.46020    0.21700    1.000
    N286     N        0.35790    0.54240    0.19970    1.000
    C144     C        0.26400    0.91880    0.71710    1.000
    N287     N        0.26420    0.96020    0.71700    1.000
    N288     N        0.35790    0.04240    0.69970    1.000
    C145     C        0.23600    0.71710    0.41880    1.000
    N289     N        0.23580    0.71700    0.46020    1.000
    N290     N        0.14210    0.69970    0.54240    1.000
    C146     C        0.23600    0.21710    0.91880    1.000
    N291     N        0.23580    0.21700    0.96020    1.000
    N292     N        0.14210    0.19970    0.04240    1.000
    C147     C        0.73600    0.71710    0.91880    1.000
    N293     N        0.73580    0.71700    0.96020    1.000
    N294     N        0.64210    0.69970    0.04240    1.000
    C148     C        0.73600    0.21710    0.41880    1.000
    N295     N        0.73580    0.21700    0.46020    1.000
    N296     N        0.64210    0.19970    0.54240    1.000
    C149     C        0.76400    0.28290    0.41880    1.000
    N297     N        0.76420    0.28300    0.46020    1.000
    N298     N        0.85790    0.30030    0.54240    1.000
    C150     C        0.76400    0.78290    0.91880    1.000
    N299     N        0.76420    0.78300    0.96020    1.000
    N300     N        0.85790    0.80030    0.04240    1.000
    C151     C        0.26400    0.28290    0.91880    1.000
    N301     N        0.26420    0.28300    0.96020    1.000
    N302     N        0.35790    0.30030    0.04240    1.000
    C152     C        0.26400    0.78290    0.41880    1.000
    N303     N        0.26420    0.78300    0.46020    1.000
    N304     N        0.35790    0.80030    0.54240    1.000
    C153     C        0.23600    0.28290    0.58120    1.000
    N305     N        0.23580    0.28300    0.53980    1.000
    N306     N        0.14210    0.30030    0.45760    1.000
    C154     C        0.23600    0.78290    0.08120    1.000
    N307     N        0.23580    0.78300    0.03980    1.000
    N308     N        0.14210    0.80030    0.95760    1.000
    C155     C        0.73600    0.28290    0.08120    1.000
    N309     N        0.73580    0.28300    0.03980    1.000
    N310     N        0.64210    0.30030    0.95760    1.000
    C156     C        0.73600    0.78290    0.58120    1.000
    N311     N        0.73580    0.78300    0.53980    1.000
    N312     N        0.64210    0.80030    0.45760    1.000
    C157     C        0.76400    0.71710    0.58120    1.000
    N313     N        0.76420    0.71700    0.53980    1.000
    N314     N        0.85790    0.69970    0.45760    1.000
    C158     C        0.76400    0.21710    0.08120    1.000
    N315     N        0.76420    0.21700    0.03980    1.000
    N316     N        0.85790    0.19970    0.95760    1.000
    C159     C        0.26400    0.71710    0.08120    1.000
    N317     N        0.26420    0.71700    0.03980    1.000
    N318     N        0.35790    0.69970    0.95760    1.000
    C160     C        0.26400    0.21710    0.58120    1.000
    N319     N        0.26420    0.21700    0.53980    1.000
    N320     N        0.35790    0.19970    0.45760    1.000
    C161     C        0.71710    0.58120    0.76400    1.000
    N321     N        0.71700    0.53980    0.76420    1.000
    N322     N        0.69970    0.45760    0.85790    1.000
    C162     C        0.71710    0.08120    0.26400    1.000
    N323     N        0.71700    0.03980    0.26420    1.000
    N324     N        0.69970    0.95760    0.35790    1.000
    C163     C        0.21710    0.58120    0.26400    1.000
    N325     N        0.21700    0.53980    0.26420    1.000
    N326     N        0.19970    0.45760    0.35790    1.000
    C164     C        0.21710    0.08120    0.76400    1.000
    N327     N        0.21700    0.03980    0.76420    1.000
    N328     N        0.19970    0.95760    0.85790    1.000
    C165     C        0.28290    0.58120    0.23600    1.000
    N329     N        0.28300    0.53980    0.23580    1.000
    N330     N        0.30030    0.45760    0.14210    1.000
    C166     C        0.28290    0.08120    0.73600    1.000
    N331     N        0.28300    0.03980    0.73580    1.000
    N332     N        0.30030    0.95760    0.64210    1.000
    C167     C        0.78290    0.58120    0.73600    1.000
    N333     N        0.78300    0.53980    0.73580    1.000
    N334     N        0.80030    0.45760    0.64210    1.000
    C168     C        0.78290    0.08120    0.23600    1.000
    N335     N        0.78300    0.03980    0.23580    1.000
    N336     N        0.80030    0.95760    0.14210    1.000
    C169     C        0.28290    0.41880    0.76400    1.000
    N337     N        0.28300    0.46020    0.76420    1.000
    N338     N        0.30030    0.54240    0.85790    1.000
    C170     C        0.28290    0.91880    0.26400    1.000
    N339     N        0.28300    0.96020    0.26420    1.000
    N340     N        0.30030    0.04240    0.35790    1.000
    C171     C        0.78290    0.41880    0.26400    1.000
    N341     N        0.78300    0.46020    0.26420    1.000
    N342     N        0.80030    0.54240    0.35790    1.000
    C172     C        0.78290    0.91880    0.76400    1.000
    N343     N        0.78300    0.96020    0.76420    1.000
    N344     N        0.80030    0.04240    0.85790    1.000
    C173     C        0.71710    0.41880    0.23600    1.000
    N345     N        0.71700    0.46020    0.23580    1.000
    N346     N        0.69970    0.54240    0.14210    1.000
    C174     C        0.71710    0.91880    0.73600    1.000
    N347     N        0.71700    0.96020    0.73580    1.000
    N348     N        0.69970    0.04240    0.64210    1.000
    C175     C        0.21710    0.41880    0.73600    1.000
    N349     N        0.21700    0.46020    0.73580    1.000
    N350     N        0.19970    0.54240    0.64210    1.000
    C176     C        0.21710    0.91880    0.23600    1.000
    N351     N        0.21700    0.96020    0.23580    1.000
    N352     N        0.19970    0.04240    0.14210    1.000
    C177     C        0.58120    0.23600    0.28290    1.000
    N353     N        0.53980    0.23580    0.28300    1.000
    N354     N        0.45760    0.14210    0.30030    1.000
    C178     C        0.58120    0.73600    0.78290    1.000
    N355     N        0.53980    0.73580    0.78300    1.000
    N356     N        0.45760    0.64210    0.80030    1.000
    C179     C        0.08120    0.23600    0.78290    1.000
    N357     N        0.03980    0.23580    0.78300    1.000
    N358     N        0.95760    0.14210    0.80030    1.000
    C180     C        0.08120    0.73600    0.28290    1.000
    N359     N        0.03980    0.73580    0.28300    1.000
    N360     N        0.95760    0.64210    0.30030    1.000
    C181     C        0.58120    0.76400    0.71710    1.000
    N361     N        0.53980    0.76420    0.71700    1.000
    N362     N        0.45760    0.85790    0.69970    1.000
    C182     C        0.58120    0.26400    0.21710    1.000
    N363     N        0.53980    0.26420    0.21700    1.000
    N364     N        0.45760    0.35790    0.19970    1.000
    C183     C        0.08120    0.76400    0.21710    1.000
    N365     N        0.03980    0.76420    0.21700    1.000
    N366     N        0.95760    0.85790    0.19970    1.000
    C184     C        0.08120    0.26400    0.71710    1.000
    N367     N        0.03980    0.26420    0.71700    1.000
    N368     N        0.95760    0.35790    0.69970    1.000
    C185     C        0.41880    0.23600    0.71710    1.000
    N369     N        0.46020    0.23580    0.71700    1.000
    N370     N        0.54240    0.14210    0.69970    1.000
    C186     C        0.41880    0.73600    0.21710    1.000
    N371     N        0.46020    0.73580    0.21700    1.000
    N372     N        0.54240    0.64210    0.19970    1.000
    C187     C        0.91880    0.23600    0.21710    1.000
    N373     N        0.96020    0.23580    0.21700    1.000
    N374     N        0.04240    0.14210    0.19970    1.000
    C188     C        0.91880    0.73600    0.71710    1.000
    N375     N        0.96020    0.73580    0.71700    1.000
    N376     N        0.04240    0.64210    0.69970    1.000
    C189     C        0.41880    0.76400    0.28290    1.000
    N377     N        0.46020    0.76420    0.28300    1.000
    N378     N        0.54240    0.85790    0.30030    1.000
    C190     C        0.41880    0.26400    0.78290    1.000
    N379     N        0.46020    0.26420    0.78300    1.000
    N380     N        0.54240    0.35790    0.80030    1.000
    C191     C        0.91880    0.76400    0.78290    1.000
    N381     N        0.96020    0.76420    0.78300    1.000
    N382     N        0.04240    0.85790    0.80030    1.000
    C192     C        0.91880    0.26400    0.28290    1.000
    N383     N        0.96020    0.26420    0.28300    1.000
    N384     N        0.04240    0.35790    0.30030    1.000
    C193     C        0.25000    0.75000    0.35680    1.000
    C194     C        0.25000    0.75000    0.40100    1.000
    C195     C        0.25000    0.75000    0.47840    1.000
    C196     C        0.25000    0.25000    0.85680    1.000
    C197     C        0.25000    0.25000    0.90100    1.000
    C198     C        0.25000    0.25000    0.97840    1.000
    C199     C        0.75000    0.25000    0.35680    1.000
    C200     C        0.75000    0.25000    0.40100    1.000
    C201     C        0.75000    0.25000    0.47840    1.000
    C202     C        0.75000    0.75000    0.85680    1.000
    C203     C        0.75000    0.75000    0.90100    1.000
    C204     C        0.75000    0.75000    0.97840    1.000
    C205     C        0.75000    0.75000    0.64320    1.000
    C206     C        0.75000    0.75000    0.59900    1.000
    C207     C        0.75000    0.75000    0.52160    1.000
    C208     C        0.75000    0.25000    0.14320    1.000
    C209     C        0.75000    0.25000    0.09900    1.000
    C210     C        0.75000    0.25000    0.02160    1.000
    C211     C        0.25000    0.25000    0.64320    1.000
    C212     C        0.25000    0.25000    0.59900    1.000
    C213     C        0.25000    0.25000    0.52160    1.000
    C214     C        0.25000    0.75000    0.14320    1.000
    C215     C        0.25000    0.75000    0.09900    1.000
    C216     C        0.25000    0.75000    0.02160    1.000
    C217     C        0.35680    0.25000    0.75000    1.000
    C218     C        0.40100    0.25000    0.75000    1.000
    C219     C        0.47840    0.25000    0.75000    1.000
    C220     C        0.85680    0.25000    0.25000    1.000
    C221     C        0.90100    0.25000    0.25000    1.000
    C222     C        0.97840    0.25000    0.25000    1.000
    C223     C        0.35680    0.75000    0.25000    1.000
    C224     C        0.40100    0.75000    0.25000    1.000
    C225     C        0.47840    0.75000    0.25000    1.000
    C226     C        0.85680    0.75000    0.75000    1.000
    C227     C        0.90100    0.75000    0.75000    1.000
    C228     C        0.97840    0.75000    0.75000    1.000
    C229     C        0.64320    0.75000    0.75000    1.000
    C230     C        0.59900    0.75000    0.75000    1.000
    C231     C        0.52160    0.75000    0.75000    1.000
    C232     C        0.14320    0.75000    0.25000    1.000
    C233     C        0.09900    0.75000    0.25000    1.000
    C234     C        0.02160    0.75000    0.25000    1.000
    C235     C        0.64320    0.25000    0.25000    1.000
    C236     C        0.59900    0.25000    0.25000    1.000
    C237     C        0.52160    0.25000    0.25000    1.000
    C238     C        0.14320    0.25000    0.75000    1.000
    C239     C        0.09900    0.25000    0.75000    1.000
    C240     C        0.02160    0.25000    0.75000    1.000
    C241     C        0.75000    0.35680    0.25000    1.000
    C242     C        0.75000    0.40100    0.25000    1.000
    C243     C        0.75000    0.47840    0.25000    1.000
    C244     C        0.75000    0.85680    0.75000    1.000
    C245     C        0.75000    0.90100    0.75000    1.000
    C246     C        0.75000    0.97840    0.75000    1.000
    C247     C        0.25000    0.35680    0.75000    1.000
    C248     C        0.25000    0.40100    0.75000    1.000
    C249     C        0.25000    0.47840    0.75000    1.000
    C250     C        0.25000    0.85680    0.25000    1.000
    C251     C        0.25000    0.90100    0.25000    1.000
    C252     C        0.25000    0.97840    0.25000    1.000
    C253     C        0.75000    0.64320    0.75000    1.000
    C254     C        0.75000    0.59900    0.75000    1.000
    C255     C        0.75000    0.52160    0.75000    1.000
    C256     C        0.75000    0.14320    0.25000    1.000
    C257     C        0.75000    0.09900    0.25000    1.000
    C258     C        0.75000    0.02160    0.25000    1.000
    C259     C        0.25000    0.64320    0.25000    1.000
    C260     C        0.25000    0.59900    0.25000    1.000
    C261     C        0.25000    0.52160    0.25000    1.000
    C262     C        0.25000    0.14320    0.75000    1.000
    C263     C        0.25000    0.09900    0.75000    1.000
    C264     C        0.25000    0.02160    0.75000    1.000
    C265     C        0.75000    0.25000    0.64320    1.000
    C266     C        0.75000    0.25000    0.59900    1.000
    C267     C        0.75000    0.25000    0.52160    1.000
    C268     C        0.75000    0.75000    0.14320    1.000
    C269     C        0.75000    0.75000    0.09900    1.000
    C270     C        0.75000    0.75000    0.02160    1.000
    C271     C        0.25000    0.75000    0.64320    1.000
    C272     C        0.25000    0.75000    0.59900    1.000
    C273     C        0.25000    0.75000    0.52160    1.000
    C274     C        0.25000    0.25000    0.14320    1.000
    C275     C        0.25000    0.25000    0.09900    1.000
    C276     C        0.25000    0.25000    0.02160    1.000
    C277     C        0.75000    0.75000    0.35680    1.000
    C278     C        0.75000    0.75000    0.40100    1.000
    C279     C        0.75000    0.75000    0.47840    1.000
    C280     C        0.75000    0.25000    0.85680    1.000
    C281     C        0.75000    0.25000    0.90100    1.000
    C282     C        0.75000    0.25000    0.97840    1.000
    C283     C        0.25000    0.25000    0.35680    1.000
    C284     C        0.25000    0.25000    0.40100    1.000
    C285     C        0.25000    0.25000    0.47840    1.000
    C286     C        0.25000    0.75000    0.85680    1.000
    C287     C        0.25000    0.75000    0.90100    1.000
    C288     C        0.25000    0.75000    0.97840    1.000
    C289     C        0.25000    0.35680    0.25000    1.000
    C290     C        0.25000    0.40100    0.25000    1.000
    C291     C        0.25000    0.47840    0.25000    1.000
    C292     C        0.25000    0.85680    0.75000    1.000
    C293     C        0.25000    0.90100    0.75000    1.000
    C294     C        0.25000    0.97840    0.75000    1.000
    C295     C        0.75000    0.35680    0.75000    1.000
    C296     C        0.75000    0.40100    0.75000    1.000
    C297     C        0.75000    0.47840    0.75000    1.000
    C298     C        0.75000    0.85680    0.25000    1.000
    C299     C        0.75000    0.90100    0.25000    1.000
    C300     C        0.75000    0.97840    0.25000    1.000
    C301     C        0.75000    0.64320    0.25000    1.000
    C302     C        0.75000    0.59900    0.25000    1.000
    C303     C        0.75000    0.52160    0.25000    1.000
    C304     C        0.75000    0.14320    0.75000    1.000
    C305     C        0.75000    0.09900    0.75000    1.000
    C306     C        0.75000    0.02160    0.75000    1.000
    C307     C        0.25000    0.64320    0.75000    1.000
    C308     C        0.25000    0.59900    0.75000    1.000
    C309     C        0.25000    0.52160    0.75000    1.000
    C310     C        0.25000    0.14320    0.25000    1.000
    C311     C        0.25000    0.09900    0.25000    1.000
    C312     C        0.25000    0.02160    0.25000    1.000
    C313     C        0.35680    0.75000    0.75000    1.000
    C314     C        0.40100    0.75000    0.75000    1.000
    C315     C        0.47840    0.75000    0.75000    1.000
    C316     C        0.85680    0.75000    0.25000    1.000
    C317     C        0.90100    0.75000    0.25000    1.000
    C318     C        0.97840    0.75000    0.25000    1.000
    C319     C        0.35680    0.25000    0.25000    1.000
    C320     C        0.40100    0.25000    0.25000    1.000
    C321     C        0.47840    0.25000    0.25000    1.000
    C322     C        0.85680    0.25000    0.75000    1.000
    C323     C        0.90100    0.25000    0.75000    1.000
    C324     C        0.97840    0.25000    0.75000    1.000
    C325     C        0.64320    0.75000    0.25000    1.000
    C326     C        0.59900    0.75000    0.25000    1.000
    C327     C        0.52160    0.75000    0.25000    1.000
    C328     C        0.14320    0.75000    0.75000    1.000
    C329     C        0.09900    0.75000    0.75000    1.000
    C330     C        0.02160    0.75000    0.75000    1.000
    C331     C        0.64320    0.25000    0.75000    1.000
    C332     C        0.59900    0.25000    0.75000    1.000
    C333     C        0.52160    0.25000    0.75000    1.000
    C334     C        0.14320    0.25000    0.25000    1.000
    C335     C        0.09900    0.25000    0.25000    1.000
    C336     C        0.02160    0.25000    0.25000    1.000
    O1       O        0.22170    0.72170    0.33320    1.000
    O2       O        0.22170    0.22170    0.83320    1.000
    O3       O        0.72170    0.72170    0.83320    1.000
    O4       O        0.77830    0.27830    0.33320    1.000
    O5       O        0.77830    0.77830    0.83320    1.000
    O6       O        0.77830    0.72170    0.66680    1.000
    O7       O        0.77830    0.22170    0.16680    1.000
    O8       O        0.22170    0.27830    0.66680    1.000
    O9       O        0.22170    0.77830    0.16680    1.000
    O10      O        0.72170    0.77830    0.66680    1.000
    O11      O        0.33320    0.22170    0.72170    1.000
    O12      O        0.83320    0.22170    0.22170    1.000
    O13      O        0.83320    0.72170    0.72170    1.000
    O14      O        0.33320    0.77830    0.27830    1.000
    O15      O        0.83320    0.77830    0.77830    1.000
    O16      O        0.66680    0.77830    0.72170    1.000
    O17      O        0.16680    0.77830    0.22170    1.000
    O18      O        0.66680    0.22170    0.27830    1.000
    O19      O        0.66680    0.72170    0.77830    1.000
    O20      O        0.16680    0.22170    0.77830    1.000
    O21      O        0.72170    0.33320    0.22170    1.000
    O22      O        0.72170    0.83320    0.72170    1.000
    O23      O        0.27830    0.33320    0.77830    1.000
    O24      O        0.27830    0.83320    0.27830    1.000
    O25      O        0.77830    0.83320    0.77830    1.000
    O26      O        0.72170    0.66680    0.77830    1.000
    O27      O        0.72170    0.16680    0.27830    1.000
    O28      O        0.27830    0.66680    0.22170    1.000
    O29      O        0.27830    0.16680    0.72170    1.000
    O30      O        0.77830    0.66680    0.72170    1.000
    O31      O        0.72170    0.22170    0.66680    1.000
    O32      O        0.72170    0.72170    0.16680    1.000
    O33      O        0.27830    0.77830    0.66680    1.000
    O34      O        0.27830    0.27830    0.16680    1.000
    O35      O        0.77830    0.77830    0.16680    1.000
    O36      O        0.72170    0.77830    0.33320    1.000
    O37      O        0.72170    0.27830    0.83320    1.000
    O38      O        0.27830    0.22170    0.33320    1.000
    O39      O        0.27830    0.72170    0.83320    1.000
    O40      O        0.77830    0.72170    0.33320    1.000
    O41      O        0.22170    0.33320    0.27830    1.000
    O42      O        0.22170    0.83320    0.77830    1.000
    O43      O        0.72170    0.33320    0.77830    1.000
    O44      O        0.77830    0.33320    0.72170    1.000
    O45      O        0.77830    0.83320    0.22170    1.000
    O46      O        0.77830    0.66680    0.27830    1.000
    O47      O        0.77830    0.16680    0.77830    1.000
    O48      O        0.22170    0.66680    0.72170    1.000
    O49      O        0.22170    0.16680    0.22170    1.000
    O50      O        0.72170    0.16680    0.72170    1.000
    O51      O        0.33320    0.72170    0.77830    1.000
    O52      O        0.83320    0.72170    0.27830    1.000
    O53      O        0.33320    0.27830    0.22170    1.000
    O54      O        0.33320    0.77830    0.72170    1.000
    O55      O        0.83320    0.27830    0.72170    1.000
    O56      O        0.66680    0.72170    0.22170    1.000
    O57      O        0.16680    0.72170    0.72170    1.000
    O58      O        0.66680    0.27830    0.77830    1.000
    O59      O        0.16680    0.27830    0.27830    1.000
    O60      O        0.16680    0.77830    0.77830    1.000
    O61      O        0.77830    0.27830    0.66680    1.000
    O62      O        0.22170    0.72170    0.66680    1.000
    O63      O        0.22170    0.22170    0.16680    1.000
    O64      O        0.22170    0.27830    0.33320    1.000
    O65      O        0.22170    0.77830    0.83320    1.000
    O66      O        0.77830    0.22170    0.83320    1.000
    O67      O        0.66680    0.77830    0.27830    1.000
    O68      O        0.66680    0.22170    0.72170    1.000
    O69      O        0.16680    0.22170    0.22170    1.000
    O70      O        0.33320    0.22170    0.27830    1.000
    O71      O        0.83320    0.22170    0.77830    1.000
    O72      O        0.83320    0.77830    0.22170    1.000
    O73      O        0.27830    0.66680    0.77830    1.000
    O74      O        0.27830    0.16680    0.27830    1.000
    O75      O        0.72170    0.66680    0.22170    1.000
    O76      O        0.27830    0.33320    0.22170    1.000
    O77      O        0.27830    0.83320    0.72170    1.000
    O78      O        0.72170    0.83320    0.27830    1.000
    O79      O        0.27830    0.77830    0.33320    1.000
    O80      O        0.27830    0.27830    0.83320    1.000
    O81      O        0.72170    0.22170    0.33320    1.000
    O82      O        0.27830    0.22170    0.66680    1.000
    O83      O        0.27830    0.72170    0.16680    1.000
    O84      O        0.72170    0.27830    0.16680    1.000
    O85      O        0.77830    0.16680    0.22170    1.000
    O86      O        0.22170    0.66680    0.27830    1.000
    O87      O        0.22170    0.16680    0.77830    1.000
    O88      O        0.22170    0.33320    0.72170    1.000
    O89      O        0.22170    0.83320    0.22170    1.000
    O90      O        0.77830    0.33320    0.27830    1.000
    O91      O        0.66680    0.27830    0.22170    1.000
    O92      O        0.16680    0.27830    0.72170    1.000
    O93      O        0.16680    0.72170    0.27830    1.000
    O94      O        0.33320    0.27830    0.77830    1.000
    O95      O        0.83320    0.27830    0.27830    1.000
    O96      O        0.33320    0.72170    0.22170    1.000
    Zn1      Zn       0.21710    0.71710    0.28290    1.000
    Zn2      Zn       0.21710    0.21710    0.78290    1.000
    Zn3      Zn       0.78290    0.28290    0.28290    1.000
    Zn4      Zn       0.78290    0.78290    0.78290    1.000
    Zn5      Zn       0.78290    0.71710    0.71710    1.000
    Zn6      Zn       0.78290    0.21710    0.21710    1.000
    Zn7      Zn       0.21710    0.28290    0.71710    1.000
    Zn8      Zn       0.21710    0.78290    0.21710    1.000
    Zn9      Zn       0.28290    0.21710    0.71710    1.000
    Zn10     Zn       0.28290    0.78290    0.28290    1.000
    Zn11     Zn       0.71710    0.78290    0.71710    1.000
    Zn12     Zn       0.71710    0.21710    0.28290    1.000
    Zn13     Zn       0.71710    0.28290    0.21710    1.000
    Zn14     Zn       0.28290    0.28290    0.78290    1.000
    Zn15     Zn       0.71710    0.71710    0.78290    1.000
    Zn16     Zn       0.28290    0.71710    0.21710    1.000
    Zn17     Zn       0.71710    0.21710    0.71710    1.000
    Zn18     Zn       0.28290    0.78290    0.71710    1.000
    Zn19     Zn       0.71710    0.78290    0.28290    1.000
    Zn20     Zn       0.28290    0.21710    0.28290    1.000
    Zn21     Zn       0.21710    0.28290    0.28290    1.000
    Zn22     Zn       0.21710    0.78290    0.78290    1.000
    Zn23     Zn       0.78290    0.28290    0.71710    1.000
    Zn24     Zn       0.78290    0.78290    0.21710    1.000
    Zn25     Zn       0.78290    0.71710    0.28290    1.000
    Zn26     Zn       0.78290    0.21710    0.78290    1.000
    Zn27     Zn       0.21710    0.71710    0.71710    1.000
    Zn28     Zn       0.21710    0.21710    0.21710    1.000
    Zn29     Zn       0.28290    0.71710    0.78290    1.000
    Zn30     Zn       0.28290    0.28290    0.21710    1.000
    Zn31     Zn       0.71710    0.71710    0.21710    1.000
    Zn32     Zn       0.71710    0.28290    0.78290    1.000
    O97      O        0.25000    0.75000    0.25000    1.000
    O98      O        0.75000    0.25000    0.25000    1.000
    O99      O        0.75000    0.75000    0.75000    1.000
    O100     O        0.25000    0.25000    0.75000    1.000
    O101     O        0.75000    0.25000    0.75000    1.000
    O102     O        0.25000    0.75000    0.75000    1.000
    O103     O        0.25000    0.25000    0.25000    1.000
    O104     O        0.75000    0.75000    0.25000    1.000
    Ir1      Ir       0.27300    0.81390    0.50000    1.000
    Ir2      Ir       0.27300    0.31390    0.00000    1.000
    Ir3      Ir       0.77300    0.81390    0.00000    1.000
    Ir4      Ir       0.77300    0.31390    0.50000    1.000
    Ir5      Ir       0.72700    0.18610    0.50000    1.000
    Ir6      Ir       0.72700    0.68610    0.00000    1.000
    Ir7      Ir       0.22700    0.18610    0.00000    1.000
    Ir8      Ir       0.22700    0.68610    0.50000    1.000
    Ir9      Ir       0.72700    0.81390    0.50000    1.000
    Ir10     Ir       0.72700    0.31390    0.00000    1.000
    Ir11     Ir       0.22700    0.81390    0.00000    1.000
    Ir12     Ir       0.22700    0.31390    0.50000    1.000
    Ir13     Ir       0.27300    0.18610    0.50000    1.000
    Ir14     Ir       0.27300    0.68610    0.00000    1.000
    Ir15     Ir       0.77300    0.18610    0.00000    1.000
    Ir16     Ir       0.77300    0.68610    0.50000    1.000
    Ir17     Ir       0.50000    0.27300    0.81390    1.000
    Ir18     Ir       0.50000    0.77300    0.31390    1.000
    Ir19     Ir       0.00000    0.27300    0.31390    1.000
    Ir20     Ir       0.00000    0.77300    0.81390    1.000
    Ir21     Ir       0.50000    0.72700    0.18610    1.000
    Ir22     Ir       0.50000    0.22700    0.68610    1.000
    Ir23     Ir       0.00000    0.72700    0.68610    1.000
    Ir24     Ir       0.00000    0.22700    0.18610    1.000
    Ir25     Ir       0.50000    0.72700    0.81390    1.000
    Ir26     Ir       0.50000    0.22700    0.31390    1.000
    Ir27     Ir       0.00000    0.72700    0.31390    1.000
    Ir28     Ir       0.00000    0.22700    0.81390    1.000
    Ir29     Ir       0.50000    0.27300    0.18610    1.000
    Ir30     Ir       0.50000    0.77300    0.68610    1.000
    Ir31     Ir       0.00000    0.27300    0.68610    1.000
    Ir32     Ir       0.00000    0.77300    0.18610    1.000
    Ir33     Ir       0.81390    0.50000    0.27300    1.000
    Ir34     Ir       0.81390    0.00000    0.77300    1.000
    Ir35     Ir       0.31390    0.50000    0.77300    1.000
    Ir36     Ir       0.31390    0.00000    0.27300    1.000
    Ir37     Ir       0.18610    0.50000    0.72700    1.000
    Ir38     Ir       0.18610    0.00000    0.22700    1.000
    Ir39     Ir       0.68610    0.50000    0.22700    1.000
    Ir40     Ir       0.68610    0.00000    0.72700    1.000
    Ir41     Ir       0.81390    0.50000    0.72700    1.000
    Ir42     Ir       0.81390    0.00000    0.22700    1.000
    Ir43     Ir       0.31390    0.50000    0.22700    1.000
    Ir44     Ir       0.31390    0.00000    0.72700    1.000
    Ir45     Ir       0.18610    0.50000    0.27300    1.000
    Ir46     Ir       0.18610    0.00000    0.77300    1.000
    Ir47     Ir       0.68610    0.50000    0.77300    1.000
    Ir48     Ir       0.68610    0.00000    0.27300    1.000
    Ir49     Ir       0.81390    0.27300    0.50000    1.000
    Ir50     Ir       0.81390    0.77300    0.00000    1.000
    Ir51     Ir       0.31390    0.27300    0.00000    1.000
    Ir52     Ir       0.31390    0.77300    0.50000    1.000
    Ir53     Ir       0.18610    0.72700    0.50000    1.000
    Ir54     Ir       0.18610    0.22700    0.00000    1.000
    Ir55     Ir       0.68610    0.72700    0.00000    1.000
    Ir56     Ir       0.68610    0.22700    0.50000    1.000
    Ir57     Ir       0.81390    0.72700    0.50000    1.000
    Ir58     Ir       0.81390    0.22700    0.00000    1.000
    Ir59     Ir       0.31390    0.72700    0.00000    1.000
    Ir60     Ir       0.31390    0.22700    0.50000    1.000
    Ir61     Ir       0.18610    0.27300    0.50000    1.000
    Ir62     Ir       0.18610    0.77300    0.00000    1.000
    Ir63     Ir       0.68610    0.27300    0.00000    1.000
    Ir64     Ir       0.68610    0.77300    0.50000    1.000
    Ir65     Ir       0.27300    0.50000    0.18610    1.000
    Ir66     Ir       0.27300    0.00000    0.68610    1.000
    Ir67     Ir       0.77300    0.50000    0.68610    1.000
    Ir68     Ir       0.77300    0.00000    0.18610    1.000
    Ir69     Ir       0.72700    0.50000    0.81390    1.000
    Ir70     Ir       0.72700    0.00000    0.31390    1.000
    Ir71     Ir       0.22700    0.50000    0.31390    1.000
    Ir72     Ir       0.22700    0.00000    0.81390    1.000
    Ir73     Ir       0.72700    0.50000    0.18610    1.000
    Ir74     Ir       0.72700    0.00000    0.68610    1.000
    Ir75     Ir       0.22700    0.50000    0.68610    1.000
    Ir76     Ir       0.22700    0.00000    0.18610    1.000
    Ir77     Ir       0.27300    0.50000    0.81390    1.000
    Ir78     Ir       0.27300    0.00000    0.31390    1.000
    Ir79     Ir       0.77300    0.50000    0.31390    1.000
    Ir80     Ir       0.77300    0.00000    0.81390    1.000
    Ir81     Ir       0.50000    0.81390    0.72700    1.000
    Ir82     Ir       0.50000    0.31390    0.22700    1.000
    Ir83     Ir       0.00000    0.81390    0.22700    1.000
    Ir84     Ir       0.00000    0.31390    0.72700    1.000
    Ir85     Ir       0.50000    0.18610    0.27300    1.000
    Ir86     Ir       0.50000    0.68610    0.77300    1.000
    Ir87     Ir       0.00000    0.18610    0.77300    1.000
    Ir88     Ir       0.00000    0.68610    0.27300    1.000
    Ir89     Ir       0.50000    0.81390    0.27300    1.000
    Ir90     Ir       0.50000    0.31390    0.77300    1.000
    Ir91     Ir       0.00000    0.81390    0.77300    1.000
    Ir92     Ir       0.00000    0.31390    0.27300    1.000
    Ir93     Ir       0.50000    0.18610    0.72700    1.000
    Ir94     Ir       0.50000    0.68610    0.22700    1.000
    Ir95     Ir       0.00000    0.18610    0.22700    1.000
    Ir96     Ir       0.00000    0.68610    0.72700    1.000
