# CIF file generated by openbabel 3.1.0, see https://openbabel.org
data_I
_chemical_name_common 'YAZZAC_clean'
_cell_length_a 7.3991
_cell_length_b 11.473
_cell_length_c 16.2335
_cell_angle_alpha 79.038
_cell_angle_beta 82.588
_cell_angle_gamma 79.972
_space_group_name_H-M_alt 'P 1'
_space_group_name_Hall 'P 1'
loop_
    _symmetry_equiv_pos_as_xyz
    x,y,z
loop_
    _atom_site_label
    _atom_site_type_symbol
    _atom_site_fract_x
    _atom_site_fract_y
    _atom_site_fract_z
    _atom_site_occupancy
    Gd1      Gd       0.05583    0.93622    0.22734    1.000
    Gd2      Gd       0.55330    0.73727    0.23645    1.000
    Gd3      Gd       0.94417    0.06378    0.77266    1.000
    Gd4      Gd       0.44670    0.26273    0.76355    1.000
    H1       H        0.00230    0.79140    0.03390    1.000
    H2       H        0.43410    0.27120    0.01990    1.000
    H3       H        0.15810    0.74240    0.44020    1.000
    H4       H        0.15320    0.12770    0.40600    1.000
    H5       H        0.12290    0.61210    0.89500    1.000
    H6       H        0.35080    0.46150    0.15370    1.000
    H7       H        0.77620    0.49790    0.41260    1.000
    H8       H        0.60660    0.82110    0.45180    1.000
    H9       H        0.79610    0.04360    0.97110    1.000
    H10      H        0.99770    0.20860    0.96610    1.000
    H11      H        0.56590    0.72880    0.98010    1.000
    H12      H        0.84190    0.25760    0.55980    1.000
    H13      H        0.84680    0.87230    0.59400    1.000
    H14      H        0.87710    0.38790    0.10500    1.000
    H15      H        0.64920    0.53850    0.84630    1.000
    H16      H        0.22380    0.50210    0.58740    1.000
    H17      H        0.39340    0.17890    0.54820    1.000
    H18      H        0.20390    0.95640    0.02890    1.000
    C1       C        0.20400    0.60770    0.08770    1.000
    C2       C        0.12880    0.64980    0.01090    1.000
    C3       C        0.16460    0.58090    0.94750    1.000
    C4       C        0.26190    0.46630    0.96220    1.000
    C5       C        0.32650    0.41970    0.04110    1.000
    C6       C        0.30200    0.49100    0.10240    1.000
    C7       C        0.18900    0.68670    0.15190    1.000
    C8       C        0.29910    0.39360    0.89310    1.000
    C9       C        0.09950    0.59460    0.48530    1.000
    C10      C        0.96580    0.59400    0.43350    1.000
    C11      C        0.86570    0.49900    0.44770    1.000
    C12      C        0.92590    0.69470    0.35960    1.000
    C13      C        0.35020    0.07820    0.46660    1.000
    C14      C        0.56410    0.89320    0.47100    1.000
    C15      C        0.41480    0.97010    0.43610    1.000
    C16      C        0.33070    0.93480    0.36700    1.000
    C17      C        0.67600    0.02670    0.98220    1.000
    C18      C        0.43240    0.95470    0.08540    1.000
    C19      C        0.61190    0.98410    0.06490    1.000
    C20      C        0.74540    0.96710    0.12750    1.000
    C21      C        0.79600    0.39230    0.91230    1.000
    C22      C        0.87120    0.35020    0.98910    1.000
    C23      C        0.83540    0.41910    0.05250    1.000
    C24      C        0.73810    0.53370    0.03780    1.000
    C25      C        0.67350    0.58030    0.95890    1.000
    C26      C        0.69800    0.50900    0.89760    1.000
    C27      C        0.81100    0.31330    0.84810    1.000
    C28      C        0.70090    0.60640    0.10690    1.000
    C29      C        0.90050    0.40540    0.51470    1.000
    C30      C        0.03420    0.40600    0.56650    1.000
    C31      C        0.13430    0.50100    0.55230    1.000
    C32      C        0.07410    0.30530    0.64040    1.000
    C33      C        0.64980    0.92180    0.53340    1.000
    C34      C        0.43590    0.10680    0.52900    1.000
    C35      C        0.58520    0.02990    0.56390    1.000
    C36      C        0.66930    0.06520    0.63300    1.000
    C37      C        0.32400    0.97330    0.01780    1.000
    C38      C        0.56760    0.04530    0.91460    1.000
    C39      C        0.38810    0.01590    0.93510    1.000
    C40      C        0.25460    0.03290    0.87250    1.000
    O1       O        0.07130    0.78130    0.14560    1.000
    O2       O        0.29540    0.65850    0.21010    1.000
    O3       O        0.26260    0.43850    0.81880    1.000
    O4       O        0.37920    0.28460    0.90950    1.000
    O5       O        0.01550    0.75640    0.99350    1.000
    O6       O        0.42400    0.30550    0.06060    1.000
    O7       O        0.01870    0.77980    0.34550    1.000
    O8       O        0.80280    0.68660    0.31640    1.000
    O9       O        0.20540    0.68450    0.47250    1.000
    O10      O        0.39830    0.83860    0.34210    1.000
    O11      O        0.19200    0.00270    0.33760    1.000
    O12      O        0.20590    0.15870    0.43560    1.000
    O13      O        0.72840    0.89580    0.19900    1.000
    O14      O        0.88400    0.02110    0.11130    1.000
    O15      O        0.36580    0.91050    0.16480    1.000
    O16      O        0.92870    0.21870    0.85440    1.000
    O17      O        0.70460    0.34150    0.78990    1.000
    O18      O        0.73740    0.56150    0.18120    1.000
    O19      O        0.62080    0.71540    0.09050    1.000
    O20      O        0.98450    0.24360    0.00650    1.000
    O21      O        0.57600    0.69450    0.93940    1.000
    O22      O        0.98130    0.22020    0.65450    1.000
    O23      O        0.19720    0.31340    0.68360    1.000
    O24      O        0.79460    0.31550    0.52750    1.000
    O25      O        0.60170    0.16140    0.65790    1.000
    O26      O        0.80800    0.99730    0.66240    1.000
    O27      O        0.79410    0.84130    0.56440    1.000
    O28      O        0.27160    0.10420    0.80100    1.000
    O29      O        0.11600    0.97890    0.88870    1.000
    O30      O        0.63420    0.08950    0.83520    1.000
