# CIF file generated by openbabel 3.1.0, see https://openbabel.org
data_I
_chemical_name_common 'image0'
_cell_length_a 10.476
_cell_length_b 20.205
_cell_length_c 8.109
_cell_angle_alpha 90
_cell_angle_beta 102.265
_cell_angle_gamma 90
_space_group_name_H-M_alt 'P 1'
_space_group_name_Hall 'P 1'
loop_
    _symmetry_equiv_pos_as_xyz
    x,y,z
loop_
    _atom_site_label
    _atom_site_type_symbol
    _atom_site_fract_x
    _atom_site_fract_y
    _atom_site_fract_z
    _atom_site_occupancy
    C1       C        0.79190    0.40012    0.05050    1.000
    H1       H        0.71080    0.39660    0.07930    1.000
    C2       C        0.84650    0.45715    0.05310    1.000
    H2       H        0.80610    0.49480    0.08380    1.000
    C3       C        0.96780    0.46665    0.00300    1.000
    C4       C        0.02420    0.40642    0.95540    1.000
    H3       H        0.10440    0.40990    0.92410    1.000
    C5       C        0.96850    0.34955    0.95990    1.000
    H4       H        0.00900    0.31160    0.93130    1.000
    N1       N        0.85110    0.34447    0.00610    1.000
    O1       O        0.91150    0.20153    0.15010    1.000
    C6       C        0.29190    0.90012    0.05050    1.000
    H5       H        0.21080    0.89660    0.07930    1.000
    C7       C        0.34650    0.95715    0.05310    1.000
    H6       H        0.30610    0.99480    0.08380    1.000
    C8       C        0.46780    0.96665    0.00300    1.000
    C9       C        0.52420    0.90642    0.95540    1.000
    H7       H        0.60440    0.90990    0.92410    1.000
    C10      C        0.46850    0.84955    0.95990    1.000
    H8       H        0.50900    0.81160    0.93130    1.000
    N2       N        0.35110    0.84447    0.00610    1.000
    O2       O        0.41150    0.70153    0.15010    1.000
    C11      C        0.20810    0.40012    0.44950    1.000
    H9       H        0.28920    0.39660    0.42070    1.000
    C12      C        0.15350    0.45715    0.44690    1.000
    H10      H        0.19390    0.49480    0.41620    1.000
    C13      C        0.03220    0.46665    0.49700    1.000
    C14      C        0.97580    0.40642    0.54460    1.000
    H11      H        0.89560    0.40990    0.57590    1.000
    C15      C        0.03150    0.34955    0.54010    1.000
    H12      H        0.99100    0.31160    0.56870    1.000
    N3       N        0.14890    0.34447    0.49390    1.000
    O3       O        0.08850    0.20153    0.34990    1.000
    C16      C        0.70810    0.90012    0.44950    1.000
    H13      H        0.78920    0.89660    0.42070    1.000
    C17      C        0.65350    0.95715    0.44690    1.000
    H14      H        0.69390    0.99480    0.41620    1.000
    C18      C        0.53220    0.96665    0.49700    1.000
    C19      C        0.47580    0.90642    0.54460    1.000
    H15      H        0.39560    0.90990    0.57590    1.000
    C20      C        0.53150    0.84955    0.54010    1.000
    H16      H        0.49100    0.81160    0.56870    1.000
    N4       N        0.64890    0.84447    0.49390    1.000
    O4       O        0.58850    0.70153    0.34990    1.000
    C21      C        0.20810    0.59988    0.94950    1.000
    H17      H        0.28920    0.60340    0.92070    1.000
    C22      C        0.15350    0.54285    0.94690    1.000
    H18      H        0.19390    0.50520    0.91620    1.000
    C23      C        0.03220    0.53335    0.99700    1.000
    C24      C        0.97580    0.59358    0.04460    1.000
    H19      H        0.89560    0.59010    0.07590    1.000
    C25      C        0.03150    0.65045    0.04010    1.000
    H20      H        0.99100    0.68840    0.06870    1.000
    N5       N        0.14890    0.65553    0.99390    1.000
    O5       O        0.08850    0.79847    0.84990    1.000
    C26      C        0.70810    0.09988    0.94950    1.000
    H21      H        0.78920    0.10340    0.92070    1.000
    C27      C        0.65350    0.04285    0.94690    1.000
    H22      H        0.69390    0.00520    0.91620    1.000
    C28      C        0.53220    0.03335    0.99700    1.000
    C29      C        0.47580    0.09358    0.04460    1.000
    H23      H        0.39560    0.09010    0.07590    1.000
    C30      C        0.53150    0.15045    0.04010    1.000
    H24      H        0.49100    0.18840    0.06870    1.000
    N6       N        0.64890    0.15553    0.99390    1.000
    O6       O        0.58850    0.29847    0.84990    1.000
    C31      C        0.79190    0.59988    0.55050    1.000
    H25      H        0.71080    0.60340    0.57930    1.000
    C32      C        0.84650    0.54285    0.55310    1.000
    H26      H        0.80610    0.50520    0.58380    1.000
    C33      C        0.96780    0.53335    0.50300    1.000
    C34      C        0.02420    0.59358    0.45540    1.000
    H27      H        0.10440    0.59010    0.42410    1.000
    C35      C        0.96850    0.65045    0.45990    1.000
    H28      H        0.00900    0.68840    0.43130    1.000
    N7       N        0.85110    0.65553    0.50610    1.000
    O7       O        0.91150    0.79847    0.65010    1.000
    C36      C        0.29190    0.09988    0.55050    1.000
    H29      H        0.21080    0.10340    0.57930    1.000
    C37      C        0.34650    0.04285    0.55310    1.000
    H30      H        0.30610    0.00520    0.58380    1.000
    C38      C        0.46780    0.03335    0.50300    1.000
    C39      C        0.52420    0.09358    0.45540    1.000
    H31      H        0.60440    0.09010    0.42410    1.000
    C40      C        0.46850    0.15045    0.45990    1.000
    H32      H        0.50900    0.18840    0.43130    1.000
    N8       N        0.35110    0.15553    0.50610    1.000
    O8       O        0.41150    0.29847    0.65010    1.000
    C41      C        0.00000    0.22720    0.25000    1.000
    H33      H        0.00000    0.27320    0.25000    1.000
    C42      C        0.50000    0.72720    0.25000    1.000
    H34      H        0.50000    0.77320    0.25000    1.000
    C43      C        0.00000    0.77280    0.75000    1.000
    H35      H        0.00000    0.72680    0.75000    1.000
    C44      C        0.50000    0.27280    0.75000    1.000
    H36      H        0.50000    0.22680    0.75000    1.000
    Co1      Co       0.75000    0.25000    0.00000    1.000
    Co2      Co       0.25000    0.25000    0.50000    1.000
    Co3      Co       0.25000    0.75000    0.00000    1.000
    Co4      Co       0.75000    0.75000    0.50000    1.000
