# CIF file generated by openbabel 3.1.0, see https://openbabel.org
data_I
_chemical_name_common 'PULDOQ_clean'
_cell_length_a 12.392
_cell_length_b 12.703
_cell_length_c 12.991
_cell_angle_alpha 63.63
_cell_angle_beta 88.8
_cell_angle_gamma 66.27
_space_group_name_H-M_alt 'P 1'
_space_group_name_Hall 'P 1'
loop_
    _symmetry_equiv_pos_as_xyz
    x,y,z
loop_
    _atom_site_label
    _atom_site_type_symbol
    _atom_site_fract_x
    _atom_site_fract_y
    _atom_site_fract_z
    _atom_site_occupancy
    Na1      Na       0.00620    0.63650    0.24300    1.000
    Na2      Na       0.92510    0.42610    0.19160    1.000
    Na3      Na       0.73140    0.93740    0.10680    1.000
    Na4      Na       0.99380    0.36350    0.75700    1.000
    Na5      Na       0.07490    0.57390    0.80840    1.000
    Na6      Na       0.26860    0.06260    0.89320    1.000
    Cu1      Cu       0.72530    0.91690    0.50660    1.000
    Cu2      Cu       0.27470    0.08310    0.49340    1.000
    Cu3      Cu       0.50000    0.50000    0.00000    1.000
    H1       H        0.70720    0.89800    0.76640    1.000
    H2       H        0.64600    0.80440    0.79160    1.000
    H3       H        0.56220    0.90400    0.61050    1.000
    H4       H        0.57960    0.01340    0.60460    1.000
    H5       H        0.29280    0.10200    0.23360    1.000
    H6       H        0.35400    0.19560    0.20840    1.000
    H7       H        0.43780    0.09600    0.38950    1.000
    H8       H        0.42040    0.98660    0.39540    1.000
    W1       W        0.59872    0.25288    0.31225    1.000
    W2       W        0.78135    0.17064    0.54528    1.000
    W3       W        0.34516    0.51215    0.22911    1.000
    W4       W        0.37546    0.79103    0.22143    1.000
    W5       W        0.43848    0.28895    0.54727    1.000
    W6       W        0.63436    0.51936    0.32505    1.000
    W7       W        0.40128    0.74712    0.68775    1.000
    W8       W        0.21865    0.82936    0.45472    1.000
    W9       W        0.65484    0.48785    0.77089    1.000
    W10      W        0.62454    0.20897    0.77857    1.000
    W11      W        0.56152    0.71105    0.45273    1.000
    W12      W        0.36564    0.48064    0.67495    1.000
    C1       C        0.69090    0.84500    0.73930    1.000
    C2       C        0.81080    0.73800    0.74220    1.000
    C3       C        0.30910    0.15500    0.26070    1.000
    C4       C        0.18920    0.26200    0.25780    1.000
    N1       N        0.61780    0.93000    0.61850    1.000
    N2       N        0.38220    0.07000    0.38150    1.000
    O1       O        0.98500    0.45140    0.36070    1.000
    O2       O        0.89000    0.66150    0.07390    1.000
    O3       O        0.36340    0.43760    0.40950    1.000
    O4       O        0.62390    0.08650    0.37150    1.000
    O5       O        0.58420    0.22680    0.49850    1.000
    O6       O        0.74340    0.17360    0.68510    1.000
    O7       O        0.81920    0.74990    0.28800    1.000
    O8       O        0.31490    0.67150    0.22160    1.000
    O9       O        0.37690    0.54810    0.08820    1.000
    O10      O        0.19980    0.53160    0.21240    1.000
    O11      O        0.51610    0.69050    0.18410    1.000
    O12      O        0.75050    0.22220    0.38010    1.000
    O13      O        0.42800    0.32360    0.28410    1.000
    O14      O        0.69840    0.38190    0.47080    1.000
    O15      O        0.53830    0.44960    0.28530    1.000
    O16      O        0.83120    0.75480    0.64100    1.000
    O17      O        0.47680    0.61720    0.39530    1.000
    O18      O        0.74500    0.49120    0.24680    1.000
    O19      O        0.30110    0.93020    0.08520    1.000
    O20      O        0.46060    0.84690    0.28730    1.000
    O21      O        0.33280    0.36560    0.63310    1.000
    O22      O        0.87740    0.65880    0.83610    1.000
    O23      O        0.01500    0.54860    0.63930    1.000
    O24      O        0.11000    0.33850    0.92610    1.000
    O25      O        0.63660    0.56240    0.59050    1.000
    O26      O        0.37610    0.91350    0.62850    1.000
    O27      O        0.41580    0.77320    0.50150    1.000
    O28      O        0.25660    0.82640    0.31490    1.000
    O29      O        0.18080    0.25010    0.71200    1.000
    O30      O        0.68510    0.32850    0.77840    1.000
    O31      O        0.62310    0.45190    0.91180    1.000
    O32      O        0.80020    0.46840    0.78760    1.000
    O33      O        0.48390    0.30950    0.81590    1.000
    O34      O        0.24950    0.77780    0.61990    1.000
    O35      O        0.57200    0.67640    0.71590    1.000
    O36      O        0.30160    0.61810    0.52920    1.000
    O37      O        0.46170    0.55040    0.71470    1.000
    O38      O        0.16880    0.24520    0.35900    1.000
    O39      O        0.52320    0.38280    0.60470    1.000
    O40      O        0.25500    0.50880    0.75320    1.000
    O41      O        0.69890    0.06980    0.91480    1.000
    O42      O        0.53940    0.15310    0.71270    1.000
    O43      O        0.66720    0.63440    0.36690    1.000
    O44      O        0.12260    0.34120    0.16390    1.000
