# CIF file generated by openbabel 3.1.0, see https://openbabel.org
data_I
_chemical_name_common 'KINQAB_clean'
_cell_length_a 9.0717
_cell_length_b 14.9399
_cell_length_c 15.6428
_cell_angle_alpha 118.524
_cell_angle_beta 105.209
_cell_angle_gamma 90
_space_group_name_H-M_alt 'P 1'
_space_group_name_Hall 'P 1'
loop_
    _symmetry_equiv_pos_as_xyz
    x,y,z
loop_
    _atom_site_label
    _atom_site_type_symbol
    _atom_site_fract_x
    _atom_site_fract_y
    _atom_site_fract_z
    _atom_site_occupancy
    Ni1      Ni       0.50166    0.75821    0.42542    1.000
    Ni2      Ni       0.49834    0.33279    0.57458    1.000
    H1       H        0.34900    0.95970    0.53940    1.000
    H2       H        0.41040    0.06850    0.72180    1.000
    H3       H        0.66760    0.84450    0.66360    1.000
    H4       H        0.23280    0.76270    0.53380    1.000
    H5       H        0.04930    0.61070    0.47840    1.000
    H6       H        0.34140    0.53380    0.31860    1.000
    H7       H        0.57850    0.91790    0.35440    1.000
    H8       H        0.99300    0.83870    0.35960    1.000
    H9       H        0.86650    0.74990    0.42340    1.000
    H10      H        0.69380    0.86970    0.82480    1.000
    H11      H        0.82540    0.93600    0.99700    1.000
    H12      H        0.71240    0.21490    0.05680    1.000
    H13      H        0.59140    0.15140    0.88360    1.000
    H14      H        0.61490    0.04020    0.14660    1.000
    H15      H        0.58430    0.95080    0.22940    1.000
    H16      H        0.04510    0.98840    0.34660    1.000
    H17      H        0.07570    0.07770    0.26360    1.000
    H18      H        0.88740    0.26270    0.33520    1.000
    H19      H        0.02320    0.43020    0.43260    1.000
    H20      H        0.15620    0.38900    0.19100    1.000
    H21      H        0.04830    0.21950    0.10560    1.000
    H22      H        0.10800    0.66480    0.15280    1.000
    H23      H        0.15600    0.77740    0.17720    1.000
    H24      H        0.17350    0.64680    0.00980    1.000
    H25      H        0.31130    0.61220    0.06720    1.000
    H26      H        0.31230    0.81710    0.10620    1.000
    H27      H        0.45330    0.77400    0.15000    1.000
    H28      H        0.37390    0.76100    0.95900    1.000
    H29      H        0.37060    0.64880    0.94220    1.000
    H30      H        0.65100    0.42030    0.46060    1.000
    H31      H        0.58960    0.34670    0.27820    1.000
    H32      H        0.33240    0.18090    0.33640    1.000
    H33      H        0.76720    0.22890    0.46620    1.000
    H34      H        0.95070    0.13230    0.52160    1.000
    H35      H        0.65860    0.21520    0.68140    1.000
    H36      H        0.42150    0.56350    0.64560    1.000
    H37      H        0.00700    0.47910    0.64040    1.000
    H38      H        0.13350    0.32650    0.57660    1.000
    H39      H        0.30620    0.04490    0.17520    1.000
    H40      H        0.17460    0.93900    0.00300    1.000
    H41      H        0.28760    0.15810    0.94320    1.000
    H42      H        0.40860    0.26780    0.11640    1.000
    H43      H        0.38510    0.89360    0.85340    1.000
    H44      H        0.41570    0.72140    0.77060    1.000
    H45      H        0.95490    0.64180    0.65340    1.000
    H46      H        0.92430    0.81410    0.73640    1.000
    H47      H        0.11260    0.92750    0.66480    1.000
    H48      H        0.97680    0.99760    0.56740    1.000
    H49      H        0.84380    0.19800    0.80900    1.000
    H50      H        0.95170    0.11390    0.89440    1.000
    H51      H        0.89200    0.51200    0.84720    1.000
    H52      H        0.84400    0.60020    0.82280    1.000
    H53      H        0.82650    0.63700    0.99020    1.000
    H54      H        0.68870    0.54500    0.93280    1.000
    H55      H        0.68770    0.71090    0.89380    1.000
    H56      H        0.54670    0.62400    0.85000    1.000
    H57      H        0.62610    0.80200    0.04100    1.000
    H58      H        0.62940    0.70660    0.05780    1.000
    C1       C        0.42290    0.95145    0.58810    1.000
    C2       C        0.45420    0.01046    0.68772    1.000
    C3       C        0.59760    0.88730    0.65540    1.000
    C4       C        0.23180    0.69630    0.48260    1.000
    C5       C        0.12990    0.61200    0.45240    1.000
    C6       C        0.29070    0.57193    0.36606    1.000
    C7       C        0.66590    0.88752    0.36504    1.000
    C8       C        0.89430    0.84366    0.36672    1.000
    C9       C        0.82440    0.79590    0.40300    1.000
    C10      C        0.32080    0.73131    0.26082    1.000
    C11      C        0.63380    0.00660    0.83820    1.000
    C12      C        0.70110    0.93925    0.87090    1.000
    C13      C        0.77900    0.97926    0.97412    1.000
    C14      C        0.78800    0.08362    0.04364    1.000
    C15      C        0.71310    0.14658    0.01016    1.000
    C16      C        0.63820    0.10806    0.90632    1.000
    C17      C        0.84830    0.06785    0.19694    1.000
    C18      C        0.70110    0.02983    0.18668    1.000
    C19      C        0.68280    0.97625    0.23630    1.000
    C20      C        0.81170    0.96070    0.29620    1.000
    C21      C        0.95890    0.99873    0.30646    1.000
    C22      C        0.97720    0.05232    0.25684    1.000
    C23      C        0.94540    0.22417    0.20594    1.000
    C24      C        0.94250    0.28793    0.30686    1.000
    C25      C        0.02220    0.38930    0.36520    1.000
    C26      C        0.09800    0.42667    0.32154    1.000
    C27      C        0.10510    0.36323    0.22086    1.000
    C28      C        0.03510    0.26322    0.16884    1.000
    C29      C        0.19360    0.71310    0.16600    1.000
    C30      C        0.25700    0.66960    0.07240    1.000
    C31      C        0.36400    0.75690    0.09200    1.000
    C32      C        0.41500    0.72010    0.99020    1.000
    C33      C        0.57710    0.36335    0.41190    1.000
    C34      C        0.54580    0.32274    0.31228    1.000
    C35      C        0.40240    0.23190    0.34460    1.000
    C36      C        0.76820    0.21370    0.51740    1.000
    C37      C        0.87010    0.15960    0.54760    1.000
    C38      C        0.70930    0.20587    0.63394    1.000
    C39      C        0.33410    0.52248    0.63496    1.000
    C40      C        0.10570    0.47694    0.63328    1.000
    C41      C        0.17560    0.39290    0.59700    1.000
    C42      C        0.67920    0.47049    0.73918    1.000
    C43      C        0.36620    0.16840    0.16180    1.000
    C44      C        0.29890    0.06835    0.12910    1.000
    C45      C        0.22100    0.00514    0.02588    1.000
    C46      C        0.21200    0.03998    0.95636    1.000
    C47      C        0.28690    0.13642    0.98984    1.000
    C48      C        0.36180    0.20174    0.09368    1.000
    C49      C        0.15170    0.87091    0.80306    1.000
    C50      C        0.29890    0.84315    0.81332    1.000
    C51      C        0.31720    0.73995    0.76370    1.000
    C52      C        0.18830    0.66450    0.70380    1.000
    C53      C        0.04110    0.69227    0.69354    1.000
    C54      C        0.02280    0.79548    0.74316    1.000
    C55      C        0.05460    0.01823    0.79406    1.000
    C56      C        0.05750    0.98107    0.69314    1.000
    C57      C        0.97780    0.02410    0.63480    1.000
    C58      C        0.90200    0.10513    0.67846    1.000
    C59      C        0.89490    0.14237    0.77914    1.000
    C60      C        0.96490    0.09438    0.83116    1.000
    C61      C        0.80640    0.54710    0.83400    1.000
    C62      C        0.74300    0.59720    0.92760    1.000
    C63      C        0.63600    0.66490    0.90800    1.000
    C64      C        0.58500    0.72990    0.00980    1.000
    N1       N        0.51770    0.87505    0.56690    1.000
    N2       N        0.56740    0.96758    0.73196    1.000
    N3       N        0.32820    0.66873    0.42766    1.000
    N4       N        0.16880    0.53103    0.37766    1.000
    N5       N        0.68070    0.82522    0.40504    1.000
    N6       N        0.79290    0.90017    0.34274    1.000
    N7       N        0.86750    0.12423    0.14786    1.000
    N8       N        0.48230    0.30815    0.43310    1.000
    N9       N        0.43260    0.23562    0.26804    1.000
    N10      N        0.67180    0.24107    0.57234    1.000
    N11      N        0.83120    0.15337    0.62234    1.000
    N12      N        0.31930    0.42018    0.59496    1.000
    N13      N        0.20710    0.55743    0.65726    1.000
    N14      N        0.13250    0.97637    0.85214    1.000
    O1       O        0.40700    0.66659    0.25898    1.000
    O2       O        0.33300    0.81172    0.34304    1.000
    O3       O        0.59300    0.40761    0.74102    1.000
    O4       O        0.66700    0.46868    0.65696    1.000
