# CIF file generated by openbabel 3.1.0, see https://openbabel.org
data_I
_chemical_name_common 'image0'
_cell_length_a 14.0003
_cell_length_b 12.1692
_cell_length_c 14.6711
_cell_angle_alpha 90
_cell_angle_beta 105.867
_cell_angle_gamma 90
_space_group_name_H-M_alt 'P 1'
_space_group_name_Hall 'P 1'
loop_
    _symmetry_equiv_pos_as_xyz
    x,y,z
loop_
    _atom_site_label
    _atom_site_type_symbol
    _atom_site_fract_x
    _atom_site_fract_y
    _atom_site_fract_z
    _atom_site_occupancy
    Zn1      Zn       0.35037    0.52140    0.65771    1.000
    Zn2      Zn       0.19539    0.74271    0.57481    1.000
    O1       O        0.20978    0.56795    0.59683    1.000
    O2       O        0.17537    0.41115    0.51503    1.000
    O3       O        0.82363    0.71376    0.17490    1.000
    O4       O        0.89639    0.86364    0.25475    1.000
    O5       O        0.32892    0.40174    0.75069    1.000
    O6       O        0.39140    0.24611    0.82697    1.000
    O7       O        0.71226    0.26643    0.52288    1.000
    O8       O        0.61254    0.40680    0.45719    1.000
    N1       N        0.07964    0.67905    0.46227    1.000
    N2       N        0.46331    0.40750    0.65702    1.000
    C1       C        0.08040    0.56910    0.45302    1.000
    C2       C        0.01470    0.51410    0.37900    1.000
    H1       H        0.01490    0.43620    0.37560    1.000
    C3       C        0.94850    0.57560    0.31010    1.000
    H2       H        0.90250    0.54010    0.25890    1.000
    C4       C        0.95020    0.68920    0.31682    1.000
    C5       C        0.01640    0.73760    0.39546    1.000
    H3       H        0.01640    0.81530    0.40160    1.000
    C6       C        0.16030    0.50830    0.52620    1.000
    C7       C        0.88350    0.76100    0.24260    1.000
    C8       C        0.46220    0.31660    0.70909    1.000
    C9       C        0.52320    0.22760    0.70700    1.000
    H4       H        0.52310    0.16540    0.74600    1.000
    C10      C        0.58510    0.23060    0.64640    1.000
    H5       H        0.62680    0.16990    0.64320    1.000
    C11      C        0.58480    0.32310    0.59130    1.000
    C12      C        0.52510    0.41100    0.60180    1.000
    H6       H        0.52840    0.47690    0.56800    1.000
    C13      C        0.38800    0.32140    0.76761    1.000
    C14      C        0.64320    0.33190    0.51820    1.000
    Zn3      Zn       0.14963    0.02140    0.84229    1.000
    Zn4      Zn       0.30461    0.24271    0.92519    1.000
    O9       O        0.29022    0.06795    0.90317    1.000
    O10      O        0.32463    0.91115    0.98497    1.000
    O11      O        0.67637    0.21376    0.32510    1.000
    O12      O        0.60361    0.36364    0.24525    1.000
    O13      O        0.17108    0.90174    0.74931    1.000
    O14      O        0.10860    0.74611    0.67303    1.000
    O15      O        0.78774    0.76643    0.97712    1.000
    O16      O        0.88746    0.90680    0.04281    1.000
    N3       N        0.42036    0.17905    0.03773    1.000
    N4       N        0.03669    0.90750    0.84298    1.000
    C15      C        0.41960    0.06910    0.04698    1.000
    C16      C        0.48530    0.01410    0.12100    1.000
    H7       H        0.48510    0.93620    0.12440    1.000
    C17      C        0.55150    0.07560    0.18990    1.000
    H8       H        0.59750    0.04010    0.24110    1.000
    C18      C        0.54980    0.18920    0.18318    1.000
    C19      C        0.48360    0.23760    0.10454    1.000
    H9       H        0.48360    0.31530    0.09840    1.000
    C20      C        0.33970    0.00830    0.97380    1.000
    C21      C        0.61650    0.26100    0.25740    1.000
    C22      C        0.03780    0.81660    0.79091    1.000
    C23      C        0.97680    0.72760    0.79300    1.000
    H10      H        0.97690    0.66540    0.75400    1.000
    C24      C        0.91490    0.73060    0.85360    1.000
    H11      H        0.87320    0.66990    0.85680    1.000
    C25      C        0.91520    0.82310    0.90870    1.000
    C26      C        0.97490    0.91100    0.89820    1.000
    H12      H        0.97160    0.97690    0.93200    1.000
    C27      C        0.11200    0.82140    0.73239    1.000
    C28      C        0.85680    0.83190    0.98180    1.000
    Zn5      Zn       0.64963    0.47860    0.34229    1.000
    Zn6      Zn       0.80461    0.25729    0.42519    1.000
    O17      O        0.79022    0.43205    0.40317    1.000
    O18      O        0.82463    0.58885    0.48497    1.000
    O19      O        0.17637    0.28624    0.82510    1.000
    O20      O        0.10361    0.13636    0.74525    1.000
    O21      O        0.67108    0.59826    0.24931    1.000
    O22      O        0.60860    0.75389    0.17303    1.000
    O23      O        0.28774    0.73357    0.47712    1.000
    O24      O        0.38746    0.59320    0.54281    1.000
    N5       N        0.92036    0.32095    0.53773    1.000
    N6       N        0.53669    0.59250    0.34298    1.000
    C29      C        0.91960    0.43090    0.54698    1.000
    C30      C        0.98530    0.48590    0.62100    1.000
    H13      H        0.98510    0.56380    0.62440    1.000
    C31      C        0.05150    0.42440    0.68990    1.000
    H14      H        0.09750    0.45990    0.74110    1.000
    C32      C        0.04980    0.31080    0.68318    1.000
    C33      C        0.98360    0.26240    0.60454    1.000
    H15      H        0.98360    0.18470    0.59840    1.000
    C34      C        0.83970    0.49170    0.47380    1.000
    C35      C        0.11650    0.23900    0.75740    1.000
    C36      C        0.53780    0.68340    0.29091    1.000
    C37      C        0.47680    0.77240    0.29300    1.000
    H16      H        0.47690    0.83460    0.25400    1.000
    C38      C        0.41490    0.76940    0.35360    1.000
    H17      H        0.37320    0.83010    0.35680    1.000
    C39      C        0.41520    0.67690    0.40870    1.000
    C40      C        0.47490    0.58900    0.39820    1.000
    H18      H        0.47160    0.52310    0.43200    1.000
    C41      C        0.61200    0.67860    0.23239    1.000
    C42      C        0.35680    0.66810    0.48180    1.000
    Zn7      Zn       0.85037    0.97860    0.15771    1.000
    Zn8      Zn       0.69539    0.75729    0.07481    1.000
    O25      O        0.70978    0.93205    0.09683    1.000
    O26      O        0.67537    0.08885    0.01503    1.000
    O27      O        0.32363    0.78624    0.67490    1.000
    O28      O        0.39639    0.63636    0.75475    1.000
    O29      O        0.82892    0.09826    0.25069    1.000
    O30      O        0.89140    0.25389    0.32697    1.000
    O31      O        0.21226    0.23357    0.02288    1.000
    O32      O        0.11254    0.09320    0.95719    1.000
    N7       N        0.57964    0.82095    0.96227    1.000
    N8       N        0.96331    0.09250    0.15702    1.000
    C43      C        0.58040    0.93090    0.95302    1.000
    C44      C        0.51470    0.98590    0.87900    1.000
    H19      H        0.51490    0.06380    0.87560    1.000
    C45      C        0.44850    0.92440    0.81010    1.000
    H20      H        0.40250    0.95990    0.75890    1.000
    C46      C        0.45020    0.81080    0.81682    1.000
    C47      C        0.51640    0.76240    0.89546    1.000
    H21      H        0.51640    0.68470    0.90160    1.000
    C48      C        0.66030    0.99170    0.02620    1.000
    C49      C        0.38350    0.73900    0.74260    1.000
    C50      C        0.96220    0.18340    0.20909    1.000
    C51      C        0.02320    0.27240    0.20700    1.000
    H22      H        0.02310    0.33460    0.24600    1.000
    C52      C        0.08510    0.26940    0.14640    1.000
    H23      H        0.12680    0.33010    0.14320    1.000
    C53      C        0.08480    0.17690    0.09130    1.000
    C54      C        0.02510    0.08900    0.10180    1.000
    H24      H        0.02840    0.02310    0.06800    1.000
    C55      C        0.88800    0.17860    0.26761    1.000
    C56      C        0.14320    0.16810    0.01820    1.000
