# CIF file generated by openbabel 3.1.0, see https://openbabel.org
data_I
_chemical_name_common 'image0'
_cell_length_a 15.3645
_cell_length_b 15.1275
_cell_length_c 8.311
_cell_angle_alpha 90
_cell_angle_beta 91.85
_cell_angle_gamma 90
_space_group_name_H-M_alt 'P 1'
_space_group_name_Hall 'P 1'
loop_
    _symmetry_equiv_pos_as_xyz
    x,y,z
loop_
    _atom_site_label
    _atom_site_type_symbol
    _atom_site_fract_x
    _atom_site_fract_y
    _atom_site_fract_z
    _atom_site_occupancy
    C1       C        0.31891    0.08566    0.94850    1.000
    H1       H        0.36540    0.11680    0.90750    1.000
    C2       C        0.32046    0.99369    0.94180    1.000
    C3       C        0.24856    0.94827    0.99860    1.000
    H2       H        0.24690    0.88690    0.99390    1.000
    C4       C        0.17920    0.99466    0.06240    1.000
    C5       C        0.18564    0.08643    0.06960    1.000
    H3       H        0.14120    0.11800    0.11650    1.000
    C6       C        0.39708    0.94669    0.87890    1.000
    C7       C        0.44677    0.98402    0.75780    1.000
    H4       H        0.43170    0.03890    0.71490    1.000
    C8       C        0.51850    0.93901    0.70210    1.000
    H5       H        0.55100    0.96410    0.62140    1.000
    C9       C        0.54262    0.85711    0.76450    1.000
    C10      C        0.49321    0.81980    0.88490    1.000
    H6       H        0.50880    0.76510    0.92820    1.000
    C11      C        0.42089    0.86391    0.94020    1.000
    H7       H        0.38780    0.83800    0.01930    1.000
    C12      C        0.62220    0.80932    0.70910    1.000
    C13      C        0.09982    0.94891    0.11730    1.000
    C14      C        0.05087    0.98305    0.24230    1.000
    H8       H        0.06740    0.03580    0.29200    1.000
    C15      C        0.97769    0.93819    0.29190    1.000
    H9       H        0.94550    0.96120    0.37500    1.000
    C16      C        0.95166    0.85921    0.21910    1.000
    C17      C        0.99998    0.82549    0.09450    1.000
    H10      H        0.98310    0.77280    0.04500    1.000
    C18      C        0.07309    0.86973    0.04340    1.000
    H11      H        0.10460    0.84670    0.95950    1.000
    C19      C        0.87129    0.81102    0.27040    1.000
    N1       N        0.25331    0.13139    0.01161    1.000
    O1       O        0.83227    0.84231    0.38890    1.000
    O2       O        0.84779    0.74259    0.19490    1.000
    O3       O        0.65994    0.84146    0.58970    1.000
    O4       O        0.64650    0.74045    0.78220    1.000
    Zn1      Zn       0.25410    0.26728    0.01296    1.000
    C20      C        0.68109    0.58566    0.55150    1.000
    H12      H        0.63460    0.61680    0.59250    1.000
    C21      C        0.67954    0.49369    0.55820    1.000
    C22      C        0.75144    0.44827    0.50140    1.000
    H13      H        0.75310    0.38690    0.50610    1.000
    C23      C        0.82080    0.49466    0.43760    1.000
    C24      C        0.81436    0.58643    0.43040    1.000
    H14      H        0.85880    0.61800    0.38350    1.000
    C25      C        0.60292    0.44669    0.62110    1.000
    C26      C        0.55323    0.48402    0.74220    1.000
    H15      H        0.56830    0.53890    0.78510    1.000
    C27      C        0.48150    0.43901    0.79790    1.000
    H16      H        0.44900    0.46410    0.87860    1.000
    C28      C        0.45738    0.35711    0.73550    1.000
    C29      C        0.50679    0.31980    0.61510    1.000
    H17      H        0.49120    0.26510    0.57180    1.000
    C30      C        0.57911    0.36391    0.55980    1.000
    H18      H        0.61220    0.33800    0.48070    1.000
    C31      C        0.37780    0.30932    0.79090    1.000
    C32      C        0.90018    0.44891    0.38270    1.000
    C33      C        0.94913    0.48305    0.25770    1.000
    H19      H        0.93260    0.53580    0.20800    1.000
    C34      C        0.02231    0.43819    0.20810    1.000
    H20      H        0.05450    0.46120    0.12500    1.000
    C35      C        0.04834    0.35921    0.28090    1.000
    C36      C        0.00002    0.32549    0.40550    1.000
    H21      H        0.01690    0.27280    0.45500    1.000
    C37      C        0.92691    0.36973    0.45660    1.000
    H22      H        0.89540    0.34670    0.54050    1.000
    C38      C        0.12871    0.31102    0.22960    1.000
    N2       N        0.74669    0.63139    0.48839    1.000
    O5       O        0.16773    0.34231    0.11110    1.000
    O6       O        0.15221    0.24259    0.30510    1.000
    O7       O        0.34006    0.34146    0.91030    1.000
    O8       O        0.35350    0.24045    0.71780    1.000
    Zn2      Zn       0.74590    0.76728    0.48704    1.000
    C39      C        0.68109    0.91434    0.05150    1.000
    H23      H        0.63460    0.88320    0.09250    1.000
    C40      C        0.67954    0.00631    0.05820    1.000
    C41      C        0.75144    0.05173    0.00140    1.000
    H24      H        0.75310    0.11310    0.00610    1.000
    C42      C        0.82080    0.00534    0.93760    1.000
    C43      C        0.81436    0.91357    0.93040    1.000
    H25      H        0.85880    0.88200    0.88350    1.000
    C44      C        0.60292    0.05331    0.12110    1.000
    C45      C        0.55323    0.01598    0.24220    1.000
    H26      H        0.56830    0.96110    0.28510    1.000
    C46      C        0.48150    0.06099    0.29790    1.000
    H27      H        0.44900    0.03590    0.37860    1.000
    C47      C        0.45738    0.14289    0.23550    1.000
    C48      C        0.50679    0.18020    0.11510    1.000
    H28      H        0.49120    0.23490    0.07180    1.000
    C49      C        0.57911    0.13609    0.05980    1.000
    H29      H        0.61220    0.16200    0.98070    1.000
    C50      C        0.37780    0.19068    0.29090    1.000
    C51      C        0.90018    0.05109    0.88270    1.000
    C52      C        0.94913    0.01695    0.75770    1.000
    H30      H        0.93260    0.96420    0.70800    1.000
    C53      C        0.02231    0.06181    0.70810    1.000
    H31      H        0.05450    0.03880    0.62500    1.000
    C54      C        0.04834    0.14079    0.78090    1.000
    C55      C        0.00002    0.17451    0.90550    1.000
    H32      H        0.01690    0.22720    0.95500    1.000
    C56      C        0.92691    0.13027    0.95660    1.000
    H33      H        0.89540    0.15330    0.04050    1.000
    C57      C        0.12871    0.18898    0.72960    1.000
    N3       N        0.74669    0.86861    0.98839    1.000
    O9       O        0.16773    0.15769    0.61110    1.000
    O10      O        0.15221    0.25741    0.80510    1.000
    O11      O        0.34006    0.15854    0.41030    1.000
    O12      O        0.35350    0.25955    0.21780    1.000
    Zn3      Zn       0.74590    0.73272    0.98704    1.000
    C58      C        0.31891    0.41434    0.44850    1.000
    H34      H        0.36540    0.38320    0.40750    1.000
    C59      C        0.32046    0.50631    0.44180    1.000
    C60      C        0.24856    0.55173    0.49860    1.000
    H35      H        0.24690    0.61310    0.49390    1.000
    C61      C        0.17920    0.50534    0.56240    1.000
    C62      C        0.18564    0.41357    0.56960    1.000
    H36      H        0.14120    0.38200    0.61650    1.000
    C63      C        0.39708    0.55331    0.37890    1.000
    C64      C        0.44677    0.51598    0.25780    1.000
    H37      H        0.43170    0.46110    0.21490    1.000
    C65      C        0.51850    0.56099    0.20210    1.000
    H38      H        0.55100    0.53590    0.12140    1.000
    C66      C        0.54262    0.64289    0.26450    1.000
    C67      C        0.49321    0.68020    0.38490    1.000
    H39      H        0.50880    0.73490    0.42820    1.000
    C68      C        0.42089    0.63609    0.44020    1.000
    H40      H        0.38780    0.66200    0.51930    1.000
    C69      C        0.62220    0.69068    0.20910    1.000
    C70      C        0.09982    0.55109    0.61730    1.000
    C71      C        0.05087    0.51695    0.74230    1.000
    H41      H        0.06740    0.46420    0.79200    1.000
    C72      C        0.97769    0.56181    0.79190    1.000
    H42      H        0.94550    0.53880    0.87500    1.000
    C73      C        0.95166    0.64079    0.71910    1.000
    C74      C        0.99998    0.67451    0.59450    1.000
    H43      H        0.98310    0.72720    0.54500    1.000
    C75      C        0.07309    0.63027    0.54340    1.000
    H44      H        0.10460    0.65330    0.45950    1.000
    C76      C        0.87129    0.68898    0.77040    1.000
    N4       N        0.25331    0.36861    0.51161    1.000
    O13      O        0.83227    0.65769    0.88890    1.000
    O14      O        0.84779    0.75741    0.69490    1.000
    O15      O        0.65994    0.65854    0.08970    1.000
    O16      O        0.64650    0.75955    0.28220    1.000
    Zn4      Zn       0.25410    0.23272    0.51296    1.000
