# CIF file generated by openbabel 3.1.0, see https://openbabel.org
data_I
_chemical_name_common 'TIZVIH01_charged'
_cell_length_a 9.59
_cell_length_b 13.416
_cell_length_c 14.5286
_cell_angle_alpha 95.1557
_cell_angle_beta 109.271
_cell_angle_gamma 74.2001
_space_group_name_H-M_alt 'P 1'
_space_group_name_Hall 'P 1'
loop_
    _symmetry_equiv_pos_as_xyz
    x,y,z
loop_
    _atom_site_label
    _atom_site_type_symbol
    _atom_site_fract_x
    _atom_site_fract_y
    _atom_site_fract_z
    _atom_site_occupancy
    Cu1      Cu       0.29087    0.22540    0.22894    1.000
    Cu2      Cu       0.06193    0.72540    0.77106    1.000
    H1       H        0.68520    0.91920    0.15040    1.000
    H2       H        0.68980    0.03360    0.87280    1.000
    H3       H        0.86920    0.76230    0.13920    1.000
    H4       H        0.97740    0.77120    0.08280    1.000
    H5       H        0.84220    0.72180    0.03280    1.000
    H6       H        0.36670    0.17210    0.91420    1.000
    H7       H        0.48810    0.22940    0.97460    1.000
    H8       H        0.48020    0.19460    0.86860    1.000
    H9       H        0.34150    0.09680    0.56320    1.000
    H10      H        0.00160    0.87040    0.44060    1.000
    H11      H        0.36830    0.05180    0.73080    1.000
    H12      H        0.35250    0.94230    0.74380    1.000
    H13      H        0.21840    0.03900    0.74140    1.000
    H14      H        0.07040    0.98190    0.25600    1.000
    H15      H        0.93050    0.96560    0.27800    1.000
    H16      H        0.07150    0.87290    0.28440    1.000
    H17      H        0.53480    0.41920    0.84960    1.000
    H18      H        0.81700    0.53360    0.12720    1.000
    H19      H        0.73000    0.26230    0.86080    1.000
    H20      H        0.89460    0.27120    0.91720    1.000
    H21      H        0.80940    0.22180    0.96720    1.000
    H22      H        0.45250    0.67210    0.08580    1.000
    H23      H        0.51350    0.72940    0.02540    1.000
    H24      H        0.61160    0.69460    0.13140    1.000
    H25      H        0.77830    0.59680    0.43680    1.000
    H26      H        0.56100    0.37040    0.55940    1.000
    H27      H        0.63750    0.55180    0.26920    1.000
    H28      H        0.60870    0.44230    0.25620    1.000
    H29      H        0.47700    0.53900    0.25860    1.000
    H30      H        0.81440    0.48190    0.74400    1.000
    H31      H        0.65250    0.46560    0.72200    1.000
    H32      H        0.78710    0.37290    0.71560    1.000
    C1       C        0.48940    0.09600    0.10880    1.000
    C2       C        0.58250    0.03430    0.05300    1.000
    C3       C        0.68350    0.93900    0.09100    1.000
    C4       C        0.77790    0.87400    0.04180    1.000
    C5       C        0.76380    0.91400    0.95160    1.000
    C6       C        0.67210    0.01250    0.91620    1.000
    C7       C        0.58170    0.07150    0.96740    1.000
    C8       C        0.85680    0.85310    0.89760    1.000
    C9       C        0.87810    0.77200    0.07620    1.000
    C10      C        0.47700    0.17700    0.92600    1.000
    C11      C        0.23770    0.08700    0.37340    1.000
    C12      C        0.20060    0.03300    0.43920    1.000
    C13      C        0.26710    0.04780    0.54020    1.000
    C14      C        0.23670    0.99680    0.60740    1.000
    C15      C        0.13160    0.93560    0.56720    1.000
    C16      C        0.07370    0.91940    0.47140    1.000
    C17      C        0.11010    0.96800    0.40220    1.000
    C18      C        0.09590    0.87620    0.63580    1.000
    C19      C        0.29280    0.01400    0.71560    1.000
    C20      C        0.03840    0.95100    0.29480    1.000
    C21      C        0.38060    0.59600    0.89120    1.000
    C22      C        0.52950    0.53430    0.94700    1.000
    C23      C        0.59250    0.43900    0.90900    1.000
    C24      C        0.73610    0.37400    0.95820    1.000
    C25      C        0.81220    0.41400    0.04840    1.000
    C26      C        0.75590    0.51250    0.08380    1.000
    C27      C        0.61430    0.57150    0.03260    1.000
    C28      C        0.95920    0.35310    0.10240    1.000
    C29      C        0.80190    0.27200    0.92380    1.000
    C30      C        0.55100    0.67700    0.07400    1.000
    C31      C        0.86430    0.58700    0.62660    1.000
    C32      C        0.76140    0.53300    0.56080    1.000
    C33      C        0.72690    0.54780    0.45980    1.000
    C34      C        0.62930    0.49680    0.39260    1.000
    C35      C        0.56440    0.43560    0.43280    1.000
    C36      C        0.60230    0.41940    0.52860    1.000
    C37      C        0.70790    0.46800    0.59780    1.000
    C38      C        0.46010    0.37620    0.36420    1.000
    C39      C        0.57720    0.51400    0.28440    1.000
    C40      C        0.74360    0.45100    0.70520    1.000
    N1       N        0.41760    0.14190    0.15120    1.000
    N2       N        0.93290    0.80190    0.85180    1.000
    N3       N        0.26490    0.12910    0.31980    1.000
    N4       N        0.07810    0.82670    0.68620    1.000
    N5       N        0.26640    0.64190    0.84880    1.000
    N6       N        0.08110    0.30190    0.14820    1.000
    N7       N        0.94510    0.62910    0.68020    1.000
    N8       N        0.39190    0.32670    0.31380    1.000
    Cl1      Cl       0.70760    0.80900    0.34600    1.000
    O1       O        0.77960    0.79570    0.44720    1.000
    O2       O        0.70950    0.90800    0.31900    1.000
    O3       O        0.80150    0.73700    0.29900    1.000
    O4       O        0.57000    0.78510    0.31600    1.000
    Cl2      Cl       0.36160    0.30900    0.65400    1.000
    O5       O        0.33240    0.29570    0.55280    1.000
    O6       O        0.39050    0.40800    0.68100    1.000
    O7       O        0.50250    0.23700    0.70100    1.000
    O8       O        0.25400    0.28510    0.68400    1.000
