# CIF file generated by openbabel 3.1.0, see https://openbabel.org
data_I
_chemical_name_common 'image0'
_cell_length_a 8.0135
_cell_length_b 17.658
_cell_length_c 13.8841
_cell_angle_alpha 90
_cell_angle_beta 90
_cell_angle_gamma 90
_space_group_name_H-M_alt 'P 1'
_space_group_name_Hall 'P 1'
loop_
    _symmetry_equiv_pos_as_xyz
    x,y,z
loop_
    _atom_site_label
    _atom_site_type_symbol
    _atom_site_fract_x
    _atom_site_fract_y
    _atom_site_fract_z
    _atom_site_occupancy
    H1       H        0.06460    0.20520    0.85440    1.000
    H2       H        0.77240    0.20490    0.83220    1.000
    C1       C        0.91640    0.31040    0.65810    1.000
    H3       H        0.90760    0.36110    0.67810    1.000
    N1       N        0.96270    0.28890    0.57170    1.000
    C2       C        0.09980    0.39513    0.36400    1.000
    H4       H        0.21160    0.40870    0.37510    1.000
    N2       N        0.05200    0.33498    0.31578    1.000
    N3       N        0.87810    0.33564    0.31542    1.000
    C3       C        0.83160    0.39616    0.36360    1.000
    H5       H        0.72020    0.41050    0.37430    1.000
    N4       N        0.96620    0.43494    0.39549    1.000
    C4       C        0.96730    0.50669    0.44900    1.000
    H6       H        0.85390    0.52740    0.45190    1.000
    H7       H        0.03860    0.54350    0.41580    1.000
    H8       H        0.43540    0.79480    0.35440    1.000
    H9       H        0.72760    0.79510    0.33220    1.000
    C5       C        0.58360    0.68960    0.15810    1.000
    H10      H        0.59240    0.63890    0.17810    1.000
    N5       N        0.53730    0.71110    0.07170    1.000
    C6       C        0.40020    0.60487    0.86400    1.000
    H11      H        0.28840    0.59130    0.87510    1.000
    N6       N        0.44800    0.66502    0.81578    1.000
    N7       N        0.62190    0.66436    0.81542    1.000
    C7       C        0.66840    0.60384    0.86360    1.000
    H12      H        0.77980    0.58950    0.87430    1.000
    N8       N        0.53380    0.56506    0.89549    1.000
    C8       C        0.53270    0.49331    0.94900    1.000
    H13      H        0.64610    0.47260    0.95190    1.000
    H14      H        0.46140    0.45650    0.91580    1.000
    H15      H        0.93540    0.70520    0.14560    1.000
    H16      H        0.22760    0.70490    0.16780    1.000
    C9       C        0.08360    0.81040    0.34190    1.000
    H17      H        0.09240    0.86110    0.32190    1.000
    N9       N        0.03730    0.78890    0.42830    1.000
    C10      C        0.90020    0.89513    0.63600    1.000
    H18      H        0.78840    0.90870    0.62490    1.000
    N10      N        0.94800    0.83498    0.68422    1.000
    N11      N        0.12190    0.83564    0.68458    1.000
    C11      C        0.16840    0.89616    0.63640    1.000
    H19      H        0.27980    0.91050    0.62570    1.000
    N12      N        0.03380    0.93494    0.60451    1.000
    C12      C        0.03270    0.00669    0.55100    1.000
    H20      H        0.14610    0.02740    0.54810    1.000
    H21      H        0.96140    0.04350    0.58420    1.000
    H22      H        0.56460    0.29480    0.64560    1.000
    H23      H        0.27240    0.29510    0.66780    1.000
    C13      C        0.41640    0.18960    0.84190    1.000
    H24      H        0.40760    0.13890    0.82190    1.000
    N13      N        0.46270    0.21110    0.92830    1.000
    C14      C        0.59980    0.10487    0.13600    1.000
    H25      H        0.71160    0.09130    0.12490    1.000
    N14      N        0.55200    0.16502    0.18422    1.000
    N15      N        0.37810    0.16436    0.18458    1.000
    C15      C        0.33160    0.10384    0.13640    1.000
    H26      H        0.22020    0.08950    0.12570    1.000
    N16      N        0.46620    0.06506    0.10451    1.000
    C16      C        0.46730    0.99331    0.05100    1.000
    H27      H        0.35390    0.97260    0.04810    1.000
    H28      H        0.53860    0.95650    0.08420    1.000
    H29      H        0.93540    0.79480    0.14560    1.000
    H30      H        0.22760    0.79510    0.16780    1.000
    C17      C        0.08360    0.68960    0.34190    1.000
    H31      H        0.09240    0.63890    0.32190    1.000
    N17      N        0.03730    0.71110    0.42830    1.000
    C18      C        0.90020    0.60487    0.63600    1.000
    H32      H        0.78840    0.59130    0.62490    1.000
    N18      N        0.94800    0.66502    0.68422    1.000
    N19      N        0.12190    0.66436    0.68458    1.000
    C19      C        0.16840    0.60384    0.63640    1.000
    H33      H        0.27980    0.58950    0.62570    1.000
    N20      N        0.03380    0.56506    0.60451    1.000
    C20      C        0.03270    0.49331    0.55100    1.000
    H34      H        0.14610    0.47260    0.54810    1.000
    H35      H        0.96140    0.45650    0.58420    1.000
    H36      H        0.56460    0.20520    0.64560    1.000
    H37      H        0.27240    0.20490    0.66780    1.000
    C21      C        0.41640    0.31040    0.84190    1.000
    H38      H        0.40760    0.36110    0.82190    1.000
    N21      N        0.46270    0.28890    0.92830    1.000
    C22      C        0.59980    0.39513    0.13600    1.000
    H39      H        0.71160    0.40870    0.12490    1.000
    N22      N        0.55200    0.33498    0.18422    1.000
    N23      N        0.37810    0.33564    0.18458    1.000
    C23      C        0.33160    0.39616    0.13640    1.000
    H40      H        0.22020    0.41050    0.12570    1.000
    N24      N        0.46620    0.43494    0.10451    1.000
    C24      C        0.46730    0.50669    0.05100    1.000
    H41      H        0.35390    0.52740    0.04810    1.000
    H42      H        0.53860    0.54350    0.08420    1.000
    H43      H        0.06460    0.29480    0.85440    1.000
    H44      H        0.77240    0.29510    0.83220    1.000
    C25      C        0.91640    0.18960    0.65810    1.000
    H45      H        0.90760    0.13890    0.67810    1.000
    N25      N        0.96270    0.21110    0.57170    1.000
    C26      C        0.09980    0.10487    0.36400    1.000
    H46      H        0.21160    0.09130    0.37510    1.000
    N26      N        0.05200    0.16502    0.31578    1.000
    N27      N        0.87810    0.16436    0.31542    1.000
    C27      C        0.83160    0.10384    0.36360    1.000
    H47      H        0.72020    0.08950    0.37430    1.000
    N28      N        0.96620    0.06506    0.39549    1.000
    C28      C        0.96730    0.99331    0.44900    1.000
    H48      H        0.85390    0.97260    0.45190    1.000
    H49      H        0.03860    0.95650    0.41580    1.000
    H50      H        0.43540    0.70520    0.35440    1.000
    H51      H        0.72760    0.70490    0.33220    1.000
    C29      C        0.58360    0.81040    0.15810    1.000
    H52      H        0.59240    0.86110    0.17810    1.000
    N29      N        0.53730    0.78890    0.07170    1.000
    C30      C        0.40020    0.89513    0.86400    1.000
    H53      H        0.28840    0.90870    0.87510    1.000
    N30      N        0.44800    0.83498    0.81578    1.000
    N31      N        0.62190    0.83564    0.81542    1.000
    C31      C        0.66840    0.89616    0.86360    1.000
    H54      H        0.77980    0.91050    0.87430    1.000
    N32      N        0.53380    0.93494    0.89549    1.000
    C32      C        0.53270    0.00669    0.94900    1.000
    H55      H        0.64610    0.02740    0.95190    1.000
    H56      H        0.46140    0.04350    0.91580    1.000
    Zn1      Zn       0.21439    0.25000    0.25202    1.000
    C33      C        0.10470    0.25000    0.04050    1.000
    H57      H        0.21790    0.25000    0.02270    1.000
    N33      N        0.05150    0.25000    0.12810    1.000
    N34      N        0.87640    0.25000    0.12370    1.000
    C34      C        0.83720    0.25000    0.03270    1.000
    H58      H        0.72760    0.25000    0.00870    1.000
    N35      N        0.97640    0.25000    0.97780    1.000
    C35      C        0.99970    0.25000    0.87260    1.000
    C36      C        0.83840    0.25000    0.81660    1.000
    N36      N        0.88320    0.25000    0.71440    1.000
    Zn2      Zn       0.28561    0.75000    0.75202    1.000
    C37      C        0.39530    0.75000    0.54050    1.000
    H59      H        0.28210    0.75000    0.52270    1.000
    N37      N        0.44850    0.75000    0.62810    1.000
    N38      N        0.62360    0.75000    0.62370    1.000
    C38      C        0.66280    0.75000    0.53270    1.000
    H60      H        0.77240    0.75000    0.50870    1.000
    N39      N        0.52360    0.75000    0.47780    1.000
    C39      C        0.50030    0.75000    0.37260    1.000
    C40      C        0.66160    0.75000    0.31660    1.000
    N40      N        0.61680    0.75000    0.21440    1.000
    Zn3      Zn       0.78561    0.75000    0.74798    1.000
    C41      C        0.89530    0.75000    0.95950    1.000
    H61      H        0.78210    0.75000    0.97730    1.000
    N41      N        0.94850    0.75000    0.87190    1.000
    N42      N        0.12360    0.75000    0.87630    1.000
    C42      C        0.16280    0.75000    0.96730    1.000
    H62      H        0.27240    0.75000    0.99130    1.000
    N43      N        0.02360    0.75000    0.02220    1.000
    C43      C        0.00030    0.75000    0.12740    1.000
    C44      C        0.16160    0.75000    0.18340    1.000
    N44      N        0.11680    0.75000    0.28560    1.000
    Zn4      Zn       0.71439    0.25000    0.24798    1.000
    C45      C        0.60470    0.25000    0.45950    1.000
    H63      H        0.71790    0.25000    0.47730    1.000
    N45      N        0.55150    0.25000    0.37190    1.000
    N46      N        0.37640    0.25000    0.37630    1.000
    C46      C        0.33720    0.25000    0.46730    1.000
    H64      H        0.22760    0.25000    0.49130    1.000
    N47      N        0.47640    0.25000    0.52220    1.000
    C47      C        0.49970    0.25000    0.62740    1.000
    C48      C        0.33840    0.25000    0.68340    1.000
    N48      N        0.38320    0.25000    0.78560    1.000
