# CIF file generated by openbabel 3.1.0, see https://openbabel.org
data_I
_chemical_name_common 'image0'
_cell_length_a 11.2374
_cell_length_b 11.2374
_cell_length_c 37.096
_cell_angle_alpha 90
_cell_angle_beta 90
_cell_angle_gamma 90
_space_group_name_H-M_alt 'P 1'
_space_group_name_Hall 'P 1'
loop_
    _symmetry_equiv_pos_as_xyz
    x,y,z
loop_
    _atom_site_label
    _atom_site_type_symbol
    _atom_site_fract_x
    _atom_site_fract_y
    _atom_site_fract_z
    _atom_site_occupancy
    Cu1      Cu       0.69675    0.69699    0.56054    1.000
    O1       O        0.60910    0.61780    0.59742    1.000
    O2       O        0.61720    0.60910    0.52314    1.000
    O3       O        0.48650    0.49080    0.62260    1.000
    O4       O        0.49190    0.48760    0.49750    1.000
    N1       N        0.79530    0.77090    0.59990    1.000
    N2       N        0.77380    0.79420    0.52130    1.000
    N3       N        0.15310    0.86630    0.75330    1.000
    N4       N        0.86900    0.15220    0.36700    1.000
    C1       C        0.91660    0.76440    0.59930    1.000
    H1       H        0.95440    0.73970    0.57830    1.000
    C2       C        0.98300    0.79240    0.62810    1.000
    H2       H        0.06550    0.79340    0.62610    1.000
    C3       C        0.93130    0.81940    0.66040    1.000
    C4       C        0.81400    0.82910    0.66050    1.000
    H3       H        0.77550    0.85450    0.68140    1.000
    C5       C        0.74800    0.80220    0.63040    1.000
    H4       H        0.66550    0.80670    0.63200    1.000
    C6       C        0.00710    0.83890    0.69320    1.000
    C7       C        0.13100    0.84060    0.69160    1.000
    H5       H        0.16840    0.83740    0.66920    1.000
    C8       C        0.19540    0.84600    0.72080    1.000
    H6       H        0.27710    0.83590    0.71840    1.000
    C9       C        0.03830    0.87050    0.75510    1.000
    H7       H        0.00400    0.88300    0.77760    1.000
    C10      C        0.96320    0.85770    0.72580    1.000
    H8       H        0.88130    0.86220    0.72900    1.000
    C11      C        0.76990    0.91310    0.52270    1.000
    H9       H        0.75170    0.94950    0.54460    1.000
    C12      C        0.79170    0.98360    0.49320    1.000
    H10      H        0.78670    0.06590    0.49540    1.000
    C13      C        0.82060    0.93390    0.46080    1.000
    C14      C        0.82580    0.81040    0.45910    1.000
    H11      H        0.84520    0.77130    0.43780    1.000
    C15      C        0.80090    0.74770    0.49060    1.000
    H12      H        0.80410    0.66510    0.48940    1.000
    C16      C        0.83840    0.01030    0.42830    1.000
    C17      C        0.83810    0.12910    0.43020    1.000
    H13      H        0.83010    0.16710    0.45230    1.000
    C18      C        0.84980    0.19490    0.39890    1.000
    H14      H        0.84330    0.27710    0.40100    1.000
    C19      C        0.86730    0.03780    0.36580    1.000
    H15      H        0.87490    0.00310    0.34310    1.000
    C20      C        0.85540    0.96160    0.39460    1.000
    H16      H        0.85880    0.87960    0.39140    1.000
    C21      C        0.53660    0.53330    0.52500    1.000
    C22      C        0.48870    0.48800    0.56040    1.000
    H17      H        0.40310    0.49890    0.55970    1.000
    H18      H        0.50280    0.40290    0.56080    1.000
    C23      C        0.53030    0.53570    0.59560    1.000
    Cu2      Cu       0.30325    0.30301    0.06054    1.000
    O5       O        0.39090    0.38220    0.09742    1.000
    O6       O        0.38280    0.39090    0.02314    1.000
    O7       O        0.51350    0.50920    0.12260    1.000
    O8       O        0.50810    0.51240    0.99750    1.000
    N5       N        0.20470    0.22910    0.09990    1.000
    N6       N        0.22620    0.20580    0.02130    1.000
    N7       N        0.84690    0.13370    0.25330    1.000
    N8       N        0.13100    0.84780    0.86700    1.000
    C24      C        0.08340    0.23560    0.09930    1.000
    H19      H        0.04560    0.26030    0.07830    1.000
    C25      C        0.01700    0.20760    0.12810    1.000
    H20      H        0.93450    0.20660    0.12610    1.000
    C26      C        0.06870    0.18060    0.16040    1.000
    C27      C        0.18600    0.17090    0.16050    1.000
    H21      H        0.22450    0.14550    0.18140    1.000
    C28      C        0.25200    0.19780    0.13040    1.000
    H22      H        0.33450    0.19330    0.13200    1.000
    C29      C        0.99290    0.16110    0.19320    1.000
    C30      C        0.86900    0.15940    0.19160    1.000
    H23      H        0.83160    0.16260    0.16920    1.000
    C31      C        0.80460    0.15400    0.22080    1.000
    H24      H        0.72290    0.16410    0.21840    1.000
    C32      C        0.96170    0.12950    0.25510    1.000
    H25      H        0.99600    0.11700    0.27760    1.000
    C33      C        0.03680    0.14230    0.22580    1.000
    H26      H        0.11870    0.13780    0.22900    1.000
    C34      C        0.23010    0.08690    0.02270    1.000
    H27      H        0.24830    0.05050    0.04460    1.000
    C35      C        0.20830    0.01640    0.99320    1.000
    H28      H        0.21330    0.93410    0.99540    1.000
    C36      C        0.17940    0.06610    0.96080    1.000
    C37      C        0.17420    0.18960    0.95910    1.000
    H29      H        0.15480    0.22870    0.93780    1.000
    C38      C        0.19910    0.25230    0.99060    1.000
    H30      H        0.19590    0.33490    0.98940    1.000
    C39      C        0.16160    0.98970    0.92830    1.000
    C40      C        0.16190    0.87090    0.93020    1.000
    H31      H        0.16990    0.83290    0.95230    1.000
    C41      C        0.15020    0.80510    0.89890    1.000
    H32      H        0.15670    0.72290    0.90100    1.000
    C42      C        0.13270    0.96220    0.86580    1.000
    H33      H        0.12510    0.99690    0.84310    1.000
    C43      C        0.14460    0.03840    0.89460    1.000
    H34      H        0.14120    0.12040    0.89140    1.000
    C44      C        0.46340    0.46670    0.02500    1.000
    C45      C        0.51130    0.51200    0.06040    1.000
    H35      H        0.59690    0.50110    0.05970    1.000
    H36      H        0.49720    0.59710    0.06080    1.000
    C46      C        0.46970    0.46430    0.09560    1.000
    Cu3      Cu       0.30301    0.69675    0.31054    1.000
    O9       O        0.38220    0.60910    0.34742    1.000
    O10      O        0.39090    0.61720    0.27314    1.000
    O11      O        0.50920    0.48650    0.37260    1.000
    O12      O        0.51240    0.49190    0.24750    1.000
    N9       N        0.22910    0.79530    0.34990    1.000
    N10      N        0.20580    0.77380    0.27130    1.000
    N11      N        0.13370    0.15310    0.50330    1.000
    N12      N        0.84780    0.86900    0.11700    1.000
    C47      C        0.23560    0.91660    0.34930    1.000
    H37      H        0.26030    0.95440    0.32830    1.000
    C48      C        0.20760    0.98300    0.37810    1.000
    H38      H        0.20660    0.06550    0.37610    1.000
    C49      C        0.18060    0.93130    0.41040    1.000
    C50      C        0.17090    0.81400    0.41050    1.000
    H39      H        0.14550    0.77550    0.43140    1.000
    C51      C        0.19780    0.74800    0.38040    1.000
    H40      H        0.19330    0.66550    0.38200    1.000
    C52      C        0.16110    0.00710    0.44320    1.000
    C53      C        0.15940    0.13100    0.44160    1.000
    H41      H        0.16260    0.16840    0.41920    1.000
    C54      C        0.15400    0.19540    0.47080    1.000
    H42      H        0.16410    0.27710    0.46840    1.000
    C55      C        0.12950    0.03830    0.50510    1.000
    H43      H        0.11700    0.00400    0.52760    1.000
    C56      C        0.14230    0.96320    0.47580    1.000
    H44      H        0.13780    0.88130    0.47900    1.000
    C57      C        0.08690    0.76990    0.27270    1.000
    H45      H        0.05050    0.75170    0.29460    1.000
    C58      C        0.01640    0.79170    0.24320    1.000
    H46      H        0.93410    0.78670    0.24540    1.000
    C59      C        0.06610    0.82060    0.21080    1.000
    C60      C        0.18960    0.82580    0.20910    1.000
    H47      H        0.22870    0.84520    0.18780    1.000
    C61      C        0.25230    0.80090    0.24060    1.000
    H48      H        0.33490    0.80410    0.23940    1.000
    C62      C        0.98970    0.83840    0.17830    1.000
    C63      C        0.87090    0.83810    0.18020    1.000
    H49      H        0.83290    0.83010    0.20230    1.000
    C64      C        0.80510    0.84980    0.14890    1.000
    H50      H        0.72290    0.84330    0.15100    1.000
    C65      C        0.96220    0.86730    0.11580    1.000
    H51      H        0.99690    0.87490    0.09310    1.000
    C66      C        0.03840    0.85540    0.14460    1.000
    H52      H        0.12040    0.85880    0.14140    1.000
    C67      C        0.46670    0.53660    0.27500    1.000
    C68      C        0.51200    0.48870    0.31040    1.000
    H53      H        0.50110    0.40310    0.30970    1.000
    H54      H        0.59710    0.50280    0.31080    1.000
    C69      C        0.46430    0.53030    0.34560    1.000
    Cu4      Cu       0.69699    0.30325    0.81054    1.000
    O13      O        0.61780    0.39090    0.84742    1.000
    O14      O        0.60910    0.38280    0.77314    1.000
    O15      O        0.49080    0.51350    0.87260    1.000
    O16      O        0.48760    0.50810    0.74750    1.000
    N13      N        0.77090    0.20470    0.84990    1.000
    N14      N        0.79420    0.22620    0.77130    1.000
    N15      N        0.86630    0.84690    0.00330    1.000
    N16      N        0.15220    0.13100    0.61700    1.000
    C70      C        0.76440    0.08340    0.84930    1.000
    H55      H        0.73970    0.04560    0.82830    1.000
    C71      C        0.79240    0.01700    0.87810    1.000
    H56      H        0.79340    0.93450    0.87610    1.000
    C72      C        0.81940    0.06870    0.91040    1.000
    C73      C        0.82910    0.18600    0.91050    1.000
    H57      H        0.85450    0.22450    0.93140    1.000
    C74      C        0.80220    0.25200    0.88040    1.000
    H58      H        0.80670    0.33450    0.88200    1.000
    C75      C        0.83890    0.99290    0.94320    1.000
    C76      C        0.84060    0.86900    0.94160    1.000
    H59      H        0.83740    0.83160    0.91920    1.000
    C77      C        0.84600    0.80460    0.97080    1.000
    H60      H        0.83590    0.72290    0.96840    1.000
    C78      C        0.87050    0.96170    0.00510    1.000
    H61      H        0.88300    0.99600    0.02760    1.000
    C79      C        0.85770    0.03680    0.97580    1.000
    H62      H        0.86220    0.11870    0.97900    1.000
    C80      C        0.91310    0.23010    0.77270    1.000
    H63      H        0.94950    0.24830    0.79460    1.000
    C81      C        0.98360    0.20830    0.74320    1.000
    H64      H        0.06590    0.21330    0.74540    1.000
    C82      C        0.93390    0.17940    0.71080    1.000
    C83      C        0.81040    0.17420    0.70910    1.000
    H65      H        0.77130    0.15480    0.68780    1.000
    C84      C        0.74770    0.19910    0.74060    1.000
    H66      H        0.66510    0.19590    0.73940    1.000
    C85      C        0.01030    0.16160    0.67830    1.000
    C86      C        0.12910    0.16190    0.68020    1.000
    H67      H        0.16710    0.16990    0.70230    1.000
    C87      C        0.19490    0.15020    0.64890    1.000
    H68      H        0.27710    0.15670    0.65100    1.000
    C88      C        0.03780    0.13270    0.61580    1.000
    H69      H        0.00310    0.12510    0.59310    1.000
    C89      C        0.96160    0.14460    0.64460    1.000
    H70      H        0.87960    0.14120    0.64140    1.000
    C90      C        0.53330    0.46340    0.77500    1.000
    C91      C        0.48800    0.51130    0.81040    1.000
    H71      H        0.49890    0.59690    0.80970    1.000
    H72      H        0.40290    0.49720    0.81080    1.000
    C92      C        0.53570    0.46970    0.84560    1.000
    Cu5      Cu       0.49400    0.49983    0.68583    1.000
    N17      N        0.30810    0.49970    0.68660    1.000
    N18      N        0.48750    0.31540    0.68534    1.000
    N19      N        0.67790    0.49930    0.68660    1.000
    N20      N        0.48850    0.68440    0.68770    1.000
    C93      C        0.24570    0.48180    0.65590    1.000
    H73      H        0.28780    0.46700    0.63480    1.000
    C94      C        0.12300    0.48440    0.65410    1.000
    H74      H        0.08380    0.47710    0.63210    1.000
    C95      C        0.06050    0.49790    0.68560    1.000
    C96      C        0.12490    0.51680    0.71570    1.000
    H75      H        0.08610    0.53090    0.73740    1.000
    C97      C        0.24660    0.51550    0.71470    1.000
    H76      H        0.28700    0.52710    0.73630    1.000
    C98      C        0.92820    0.49930    0.68620    1.000
    C99      C        0.86290    0.53160    0.71540    1.000
    H77      H        0.90180    0.55410    0.73650    1.000
    C100     C        0.74070    0.53170    0.71470    1.000
    H78      H        0.70030    0.55620    0.73520    1.000
    C101     C        0.74100    0.46940    0.65640    1.000
    H79      H        0.70000    0.44910    0.63550    1.000
    C102     C        0.86600    0.46830    0.65600    1.000
    H80      H        0.90650    0.44650    0.63510    1.000
    C103     C        0.52880    0.25000    0.65620    1.000
    H81      H        0.55850    0.29020    0.63630    1.000
    C104     C        0.52710    0.12780    0.65600    1.000
    H82      H        0.55400    0.08650    0.63580    1.000
    C105     C        0.48540    0.06610    0.68560    1.000
    C106     C        0.44260    0.13310    0.71440    1.000
    H83      H        0.41330    0.09560    0.73490    1.000
    C107     C        0.44410    0.25560    0.71220    1.000
    H84      H        0.41170    0.29830    0.73130    1.000
    C108     C        0.48580    0.93490    0.68630    1.000
    C109     C        0.44410    0.86660    0.65720    1.000
    H85      H        0.41460    0.90400    0.63670    1.000
    C110     C        0.44680    0.74670    0.65900    1.000
    H86      H        0.41830    0.70410    0.63940    1.000
    C111     C        0.52720    0.74950    0.71470    1.000
    H87      H        0.55720    0.71000    0.73480    1.000
    C112     C        0.52640    0.86890    0.71540    1.000
    H88      H        0.55360    0.90830    0.73580    1.000
    Cu6      Cu       0.50600    0.50017    0.18583    1.000
    N21      N        0.69190    0.50030    0.18660    1.000
    N22      N        0.51250    0.68460    0.18534    1.000
    N23      N        0.32210    0.50070    0.18660    1.000
    N24      N        0.51150    0.31560    0.18770    1.000
    C113     C        0.75430    0.51820    0.15590    1.000
    H89      H        0.71220    0.53300    0.13480    1.000
    C114     C        0.87700    0.51560    0.15410    1.000
    H90      H        0.91620    0.52290    0.13210    1.000
    C115     C        0.93950    0.50210    0.18560    1.000
    C116     C        0.87510    0.48320    0.21570    1.000
    H91      H        0.91390    0.46910    0.23740    1.000
    C117     C        0.75340    0.48450    0.21470    1.000
    H92      H        0.71300    0.47290    0.23630    1.000
    C118     C        0.07180    0.50070    0.18620    1.000
    C119     C        0.13710    0.46840    0.21540    1.000
    H93      H        0.09820    0.44590    0.23650    1.000
    C120     C        0.25930    0.46830    0.21470    1.000
    H94      H        0.29970    0.44380    0.23520    1.000
    C121     C        0.25900    0.53060    0.15640    1.000
    H95      H        0.30000    0.55090    0.13550    1.000
    C122     C        0.13400    0.53170    0.15600    1.000
    H96      H        0.09350    0.55350    0.13510    1.000
    C123     C        0.47120    0.75000    0.15620    1.000
    H97      H        0.44150    0.70980    0.13630    1.000
    C124     C        0.47290    0.87220    0.15600    1.000
    H98      H        0.44600    0.91350    0.13580    1.000
    C125     C        0.51460    0.93390    0.18560    1.000
    C126     C        0.55740    0.86690    0.21440    1.000
    H99      H        0.58670    0.90440    0.23490    1.000
    C127     C        0.55590    0.74440    0.21220    1.000
    H100     H        0.58830    0.70170    0.23130    1.000
    C128     C        0.51420    0.06510    0.18630    1.000
    C129     C        0.55590    0.13340    0.15720    1.000
    H101     H        0.58540    0.09600    0.13670    1.000
    C130     C        0.55320    0.25330    0.15900    1.000
    H102     H        0.58170    0.29590    0.13940    1.000
    C131     C        0.47280    0.25050    0.21470    1.000
    H103     H        0.44280    0.29000    0.23480    1.000
    C132     C        0.47360    0.13110    0.21540    1.000
    H104     H        0.44640    0.09170    0.23580    1.000
    Cu7      Cu       0.50017    0.49400    0.43583    1.000
    N25      N        0.50030    0.30810    0.43660    1.000
    N26      N        0.68460    0.48750    0.43534    1.000
    N27      N        0.50070    0.67790    0.43660    1.000
    N28      N        0.31560    0.48850    0.43770    1.000
    C133     C        0.51820    0.24570    0.40590    1.000
    H105     H        0.53300    0.28780    0.38480    1.000
    C134     C        0.51560    0.12300    0.40410    1.000
    H106     H        0.52290    0.08380    0.38210    1.000
    C135     C        0.50210    0.06050    0.43560    1.000
    C136     C        0.48320    0.12490    0.46570    1.000
    H107     H        0.46910    0.08610    0.48740    1.000
    C137     C        0.48450    0.24660    0.46470    1.000
    H108     H        0.47290    0.28700    0.48630    1.000
    C138     C        0.50070    0.92820    0.43620    1.000
    C139     C        0.46840    0.86290    0.46540    1.000
    H109     H        0.44590    0.90180    0.48650    1.000
    C140     C        0.46830    0.74070    0.46470    1.000
    H110     H        0.44380    0.70030    0.48520    1.000
    C141     C        0.53060    0.74100    0.40640    1.000
    H111     H        0.55090    0.70000    0.38550    1.000
    C142     C        0.53170    0.86600    0.40600    1.000
    H112     H        0.55350    0.90650    0.38510    1.000
    C143     C        0.75000    0.52880    0.40620    1.000
    H113     H        0.70980    0.55850    0.38630    1.000
    C144     C        0.87220    0.52710    0.40600    1.000
    H114     H        0.91350    0.55400    0.38580    1.000
    C145     C        0.93390    0.48540    0.43560    1.000
    C146     C        0.86690    0.44260    0.46440    1.000
    H115     H        0.90440    0.41330    0.48490    1.000
    C147     C        0.74440    0.44410    0.46220    1.000
    H116     H        0.70170    0.41170    0.48130    1.000
    C148     C        0.06510    0.48580    0.43630    1.000
    C149     C        0.13340    0.44410    0.40720    1.000
    H117     H        0.09600    0.41460    0.38670    1.000
    C150     C        0.25330    0.44680    0.40900    1.000
    H118     H        0.29590    0.41830    0.38940    1.000
    C151     C        0.25050    0.52720    0.46470    1.000
    H119     H        0.29000    0.55720    0.48480    1.000
    C152     C        0.13110    0.52640    0.46540    1.000
    H120     H        0.09170    0.55360    0.48580    1.000
    Cu8      Cu       0.49983    0.50600    0.93583    1.000
    N29      N        0.49970    0.69190    0.93660    1.000
    N30      N        0.31540    0.51250    0.93534    1.000
    N31      N        0.49930    0.32210    0.93660    1.000
    N32      N        0.68440    0.51150    0.93770    1.000
    C153     C        0.48180    0.75430    0.90590    1.000
    H121     H        0.46700    0.71220    0.88480    1.000
    C154     C        0.48440    0.87700    0.90410    1.000
    H122     H        0.47710    0.91620    0.88210    1.000
    C155     C        0.49790    0.93950    0.93560    1.000
    C156     C        0.51680    0.87510    0.96570    1.000
    H123     H        0.53090    0.91390    0.98740    1.000
    C157     C        0.51550    0.75340    0.96470    1.000
    H124     H        0.52710    0.71300    0.98630    1.000
    C158     C        0.49930    0.07180    0.93620    1.000
    C159     C        0.53160    0.13710    0.96540    1.000
    H125     H        0.55410    0.09820    0.98650    1.000
    C160     C        0.53170    0.25930    0.96470    1.000
    H126     H        0.55620    0.29970    0.98520    1.000
    C161     C        0.46940    0.25900    0.90640    1.000
    H127     H        0.44910    0.30000    0.88550    1.000
    C162     C        0.46830    0.13400    0.90600    1.000
    H128     H        0.44650    0.09350    0.88510    1.000
    C163     C        0.25000    0.47120    0.90620    1.000
    H129     H        0.29020    0.44150    0.88630    1.000
    C164     C        0.12780    0.47290    0.90600    1.000
    H130     H        0.08650    0.44600    0.88580    1.000
    C165     C        0.06610    0.51460    0.93560    1.000
    C166     C        0.13310    0.55740    0.96440    1.000
    H131     H        0.09560    0.58670    0.98490    1.000
    C167     C        0.25560    0.55590    0.96220    1.000
    H132     H        0.29830    0.58830    0.98130    1.000
    C168     C        0.93490    0.51420    0.93630    1.000
    C169     C        0.86660    0.55590    0.90720    1.000
    H133     H        0.90400    0.58540    0.88670    1.000
    C170     C        0.74670    0.55320    0.90900    1.000
    H134     H        0.70410    0.58170    0.88940    1.000
    C171     C        0.74950    0.47280    0.96470    1.000
    H135     H        0.71000    0.44280    0.98480    1.000
    C172     C        0.86890    0.47360    0.96540    1.000
    H136     H        0.90830    0.44640    0.98580    1.000
