# CIF file generated by openbabel 3.1.0, see https://openbabel.org
data_I
_chemical_name_common 'image0'
_cell_length_a 27.749
_cell_length_b 13.817
_cell_length_c 44.362
_cell_angle_alpha 90
_cell_angle_beta 90
_cell_angle_gamma 90
_space_group_name_H-M_alt 'P 1'
_space_group_name_Hall 'P 1'
loop_
    _symmetry_equiv_pos_as_xyz
    x,y,z
loop_
    _atom_site_label
    _atom_site_type_symbol
    _atom_site_fract_x
    _atom_site_fract_y
    _atom_site_fract_z
    _atom_site_occupancy
    Zn1      Zn       0.97543    0.62223    0.41516    1.000
    Zn2      Zn       0.95265    0.85641    0.58614    1.000
    Zn3      Zn       0.76049    0.81829    0.31894    1.000
    I1       I        0.99435    0.69537    0.46677    1.000
    I2       I        0.92598    0.71061    0.37609    1.000
    I3       I        0.94594    0.67307    0.58013    1.000
    I4       I        0.01748    0.94041    0.61645    1.000
    I5       I        0.67129    0.81722    0.33253    1.000
    I6       I        0.80415    0.65752    0.31273    1.000
    C1       C        0.80210    0.99530    0.34778    1.000
    H1       H        0.78990    0.02720    0.33040    1.000
    C2       C        0.82510    0.05000    0.36973    1.000
    H2       H        0.82890    0.11780    0.36720    1.000
    C3       C        0.81440    0.85660    0.37445    1.000
    H3       H        0.81120    0.78840    0.37620    1.000
    C4       C        0.83730    0.90580    0.39730    1.000
    H4       H        0.84940    0.87210    0.41430    1.000
    C5       C        0.84230    0.00470    0.39508    1.000
    C6       C        0.86720    0.05990    0.41899    1.000
    C7       C        0.92790    0.86750    0.52095    1.000
    H5       H        0.92300    0.79970    0.52300    1.000
    C8       C        0.91500    0.91140    0.49411    1.000
    H6       H        0.90170    0.87470    0.47800    1.000
    C9       C        0.95590    0.01200    0.54031    1.000
    H7       H        0.97150    0.04660    0.55600    1.000
    C10      C        0.94330    0.06050    0.51432    1.000
    H8       H        0.94930    0.12800    0.51240    1.000
    C11      C        0.92200    0.01010    0.49123    1.000
    C12      C        0.90610    0.06130    0.46373    1.000
    C13      C        0.94540    0.44820    0.45058    1.000
    H9       H        0.95650    0.48550    0.46720    1.000
    C14      C        0.93040    0.35500    0.45547    1.000
    H10      H        0.93160    0.32820    0.47520    1.000
    C15      C        0.92770    0.43520    0.40016    1.000
    H11      H        0.92640    0.46360    0.38070    1.000
    C16      C        0.91210    0.34240    0.40340    1.000
    H12      H        0.90050    0.30720    0.38650    1.000
    C17      C        0.91340    0.30010    0.43168    1.000
    C18      C        0.90020    0.19750    0.43631    1.000
    C19      C        0.04150    0.57070    0.36491    1.000
    H13      H        0.01200    0.56660    0.35410    1.000
    C20      C        0.08370    0.55610    0.34939    1.000
    H14      H        0.08330    0.54190    0.32840    1.000
    C21      C        0.08190    0.59440    0.40941    1.000
    H15      H        0.08130    0.60680    0.43050    1.000
    C22      C        0.12580    0.58120    0.39536    1.000
    H16      H        0.15490    0.58500    0.40660    1.000
    C23      C        0.12690    0.56240    0.36487    1.000
    C24      C        0.17380    0.55000    0.34938    1.000
    C25      C        0.34620    0.61390    0.40978    1.000
    H17      H        0.34700    0.63460    0.43020    1.000
    C26      C        0.30180    0.59760    0.39657    1.000
    H18      H        0.27280    0.60620    0.40770    1.000
    C27      C        0.38640    0.57080    0.36666    1.000
    H19      H        0.41600    0.55950    0.35640    1.000
    C28      C        0.34420    0.55470    0.35170    1.000
    H20      H        0.34450    0.53440    0.33130    1.000
    C29      C        0.30060    0.56850    0.36668    1.000
    C30      C        0.25440    0.55370    0.35055    1.000
    C31      C        0.26680    0.43770    0.23343    1.000
    H21      H        0.29690    0.44090    0.22320    1.000
    C32      C        0.26360    0.47700    0.26197    1.000
    H22      H        0.29120    0.50470    0.27130    1.000
    C33      C        0.18720    0.39600    0.23381    1.000
    H23      H        0.16040    0.36770    0.22390    1.000
    C34      C        0.18070    0.43510    0.26192    1.000
    H24      H        0.14980    0.43450    0.27110    1.000
    C35      C        0.22020    0.47570    0.27676    1.000
    C36      C        0.21640    0.51140    0.30782    1.000
    N1       N        0.79659    0.89930    0.35011    1.000
    N2       N        0.94679    0.91660    0.54405    1.000
    N3       N        0.94481    0.48860    0.42286    1.000
    N4       N        0.88192    0.00970    0.44289    1.000
    N5       N        0.91670    0.15450    0.46118    1.000
    N6       N        0.87453    0.15450    0.41471    1.000
    N7       N        0.03970    0.59030    0.39420    1.000
    N8       N        0.38761    0.60200    0.39545    1.000
    N9       N        0.23010    0.39600    0.21977    1.000
    N10      N        0.21357    0.56650    0.36545    1.000
    N11      N        0.25783    0.52640    0.32164    1.000
    N12      N        0.17267    0.52200    0.32039    1.000
    Zn4      Zn       0.52457    0.37777    0.91516    1.000
    Zn5      Zn       0.54735    0.14359    0.08614    1.000
    Zn6      Zn       0.73951    0.18171    0.81894    1.000
    I7       I        0.50565    0.30463    0.96677    1.000
    I8       I        0.57402    0.28939    0.87609    1.000
    I9       I        0.55406    0.32693    0.08013    1.000
    I10      I        0.48252    0.05959    0.11645    1.000
    I11      I        0.82871    0.18278    0.83253    1.000
    I12      I        0.69585    0.34248    0.81273    1.000
    C37      C        0.69790    0.00470    0.84778    1.000
    H25      H        0.71010    0.97280    0.83040    1.000
    C38      C        0.67490    0.95000    0.86973    1.000
    H26      H        0.67110    0.88220    0.86720    1.000
    C39      C        0.68560    0.14340    0.87445    1.000
    H27      H        0.68880    0.21160    0.87620    1.000
    C40      C        0.66270    0.09420    0.89730    1.000
    H28      H        0.65060    0.12790    0.91430    1.000
    C41      C        0.65770    0.99530    0.89508    1.000
    C42      C        0.63280    0.94010    0.91899    1.000
    C43      C        0.57210    0.13250    0.02095    1.000
    H29      H        0.57700    0.20030    0.02300    1.000
    C44      C        0.58500    0.08860    0.99411    1.000
    H30      H        0.59830    0.12530    0.97800    1.000
    C45      C        0.54410    0.98800    0.04031    1.000
    H31      H        0.52850    0.95340    0.05600    1.000
    C46      C        0.55670    0.93950    0.01432    1.000
    H32      H        0.55070    0.87200    0.01240    1.000
    C47      C        0.57800    0.98990    0.99123    1.000
    C48      C        0.59390    0.93870    0.96373    1.000
    C49      C        0.55460    0.55180    0.95058    1.000
    H33      H        0.54350    0.51450    0.96720    1.000
    C50      C        0.56960    0.64500    0.95547    1.000
    H34      H        0.56840    0.67180    0.97520    1.000
    C51      C        0.57230    0.56480    0.90016    1.000
    H35      H        0.57360    0.53640    0.88070    1.000
    C52      C        0.58790    0.65760    0.90340    1.000
    H36      H        0.59950    0.69280    0.88650    1.000
    C53      C        0.58660    0.69990    0.93168    1.000
    C54      C        0.59980    0.80250    0.93631    1.000
    C55      C        0.45850    0.42930    0.86491    1.000
    H37      H        0.48800    0.43340    0.85410    1.000
    C56      C        0.41630    0.44390    0.84939    1.000
    H38      H        0.41670    0.45810    0.82840    1.000
    C57      C        0.41810    0.40560    0.90941    1.000
    H39      H        0.41870    0.39320    0.93050    1.000
    C58      C        0.37420    0.41880    0.89536    1.000
    H40      H        0.34510    0.41500    0.90660    1.000
    C59      C        0.37310    0.43760    0.86487    1.000
    C60      C        0.32620    0.45000    0.84938    1.000
    C61      C        0.15380    0.38610    0.90978    1.000
    H41      H        0.15300    0.36540    0.93020    1.000
    C62      C        0.19820    0.40240    0.89657    1.000
    H42      H        0.22720    0.39380    0.90770    1.000
    C63      C        0.11360    0.42920    0.86666    1.000
    H43      H        0.08400    0.44050    0.85640    1.000
    C64      C        0.15580    0.44530    0.85170    1.000
    H44      H        0.15550    0.46560    0.83130    1.000
    C65      C        0.19940    0.43150    0.86668    1.000
    C66      C        0.24560    0.44630    0.85055    1.000
    C67      C        0.23320    0.56230    0.73343    1.000
    H45      H        0.20310    0.55910    0.72320    1.000
    C68      C        0.23640    0.52300    0.76197    1.000
    H46      H        0.20880    0.49530    0.77130    1.000
    C69      C        0.31280    0.60400    0.73381    1.000
    H47      H        0.33960    0.63230    0.72390    1.000
    C70      C        0.31930    0.56490    0.76192    1.000
    H48      H        0.35020    0.56550    0.77110    1.000
    C71      C        0.27980    0.52430    0.77676    1.000
    C72      C        0.28360    0.48860    0.80782    1.000
    N13      N        0.70341    0.10070    0.85011    1.000
    N14      N        0.55321    0.08340    0.04405    1.000
    N15      N        0.55519    0.51140    0.92286    1.000
    N16      N        0.61808    0.99030    0.94289    1.000
    N17      N        0.58330    0.84550    0.96118    1.000
    N18      N        0.62547    0.84550    0.91471    1.000
    N19      N        0.46030    0.40970    0.89420    1.000
    N20      N        0.11239    0.39800    0.89545    1.000
    N21      N        0.26990    0.60400    0.71977    1.000
    N22      N        0.28643    0.43350    0.86545    1.000
    N23      N        0.24217    0.47360    0.82164    1.000
    N24      N        0.32733    0.47800    0.82039    1.000
    Zn7      Zn       0.02457    0.12223    0.08484    1.000
    Zn8      Zn       0.04735    0.35641    0.91386    1.000
    Zn9      Zn       0.23951    0.31829    0.18106    1.000
    I13      I        0.00565    0.19537    0.03323    1.000
    I14      I        0.07402    0.21061    0.12391    1.000
    I15      I        0.05406    0.17307    0.91987    1.000
    I16      I        0.98252    0.44041    0.88355    1.000
    I17      I        0.32871    0.31722    0.16747    1.000
    I18      I        0.19585    0.15752    0.18727    1.000
    C73      C        0.19790    0.49530    0.15222    1.000
    H49      H        0.21010    0.52720    0.16960    1.000
    C74      C        0.17490    0.55000    0.13027    1.000
    H50      H        0.17110    0.61780    0.13280    1.000
    C75      C        0.18560    0.35660    0.12555    1.000
    H51      H        0.18880    0.28840    0.12380    1.000
    C76      C        0.16270    0.40580    0.10270    1.000
    H52      H        0.15060    0.37210    0.08570    1.000
    C77      C        0.15770    0.50470    0.10492    1.000
    C78      C        0.13280    0.55990    0.08101    1.000
    C79      C        0.07210    0.36750    0.97905    1.000
    H53      H        0.07700    0.29970    0.97700    1.000
    C80      C        0.08500    0.41140    0.00589    1.000
    H54      H        0.09830    0.37470    0.02200    1.000
    C81      C        0.04410    0.51200    0.95969    1.000
    H55      H        0.02850    0.54660    0.94400    1.000
    C82      C        0.05670    0.56050    0.98568    1.000
    H56      H        0.05070    0.62800    0.98760    1.000
    C83      C        0.07800    0.51010    0.00877    1.000
    C84      C        0.09390    0.56130    0.03627    1.000
    C85      C        0.05460    0.94820    0.04942    1.000
    H57      H        0.04350    0.98550    0.03280    1.000
    C86      C        0.06960    0.85500    0.04453    1.000
    H58      H        0.06840    0.82820    0.02480    1.000
    C87      C        0.07230    0.93520    0.09984    1.000
    H59      H        0.07360    0.96360    0.11930    1.000
    C88      C        0.08790    0.84240    0.09660    1.000
    H60      H        0.09950    0.80720    0.11350    1.000
    C89      C        0.08660    0.80010    0.06832    1.000
    C90      C        0.09980    0.69750    0.06369    1.000
    C91      C        0.95850    0.07070    0.13509    1.000
    H61      H        0.98800    0.06660    0.14590    1.000
    C92      C        0.91630    0.05610    0.15061    1.000
    H62      H        0.91670    0.04190    0.17160    1.000
    C93      C        0.91810    0.09440    0.09059    1.000
    H63      H        0.91870    0.10680    0.06950    1.000
    C94      C        0.87420    0.08120    0.10464    1.000
    H64      H        0.84510    0.08500    0.09340    1.000
    C95      C        0.87310    0.06240    0.13513    1.000
    C96      C        0.82620    0.05000    0.15062    1.000
    C97      C        0.65380    0.11390    0.09022    1.000
    H65      H        0.65300    0.13460    0.06980    1.000
    C98      C        0.69820    0.09760    0.10343    1.000
    H66      H        0.72720    0.10620    0.09230    1.000
    C99      C        0.61360    0.07080    0.13334    1.000
    H67      H        0.58400    0.05950    0.14360    1.000
    C100     C        0.65580    0.05470    0.14830    1.000
    H68      H        0.65550    0.03440    0.16870    1.000
    C101     C        0.69940    0.06850    0.13332    1.000
    C102     C        0.74560    0.05370    0.14945    1.000
    C103     C        0.73320    0.93770    0.26657    1.000
    H69      H        0.70310    0.94090    0.27680    1.000
    C104     C        0.73640    0.97700    0.23803    1.000
    H70      H        0.70880    0.00470    0.22870    1.000
    C105     C        0.81280    0.89600    0.26619    1.000
    H71      H        0.83960    0.86770    0.27610    1.000
    C106     C        0.81930    0.93510    0.23808    1.000
    H72      H        0.85020    0.93450    0.22890    1.000
    C107     C        0.77980    0.97570    0.22324    1.000
    C108     C        0.78360    0.01140    0.19218    1.000
    N25      N        0.20341    0.39930    0.14989    1.000
    N26      N        0.05321    0.41660    0.95595    1.000
    N27      N        0.05519    0.98860    0.07714    1.000
    N28      N        0.11808    0.50970    0.05711    1.000
    N29      N        0.08330    0.65450    0.03882    1.000
    N30      N        0.12547    0.65450    0.08529    1.000
    N31      N        0.96030    0.09030    0.10580    1.000
    N32      N        0.61239    0.10200    0.10455    1.000
    N33      N        0.76990    0.89600    0.28023    1.000
    N34      N        0.78643    0.06650    0.13455    1.000
    N35      N        0.74217    0.02640    0.17836    1.000
    N36      N        0.82733    0.02200    0.17961    1.000
    Zn10     Zn       0.47543    0.87777    0.58484    1.000
    Zn11     Zn       0.45265    0.64359    0.41386    1.000
    Zn12     Zn       0.26049    0.68171    0.68106    1.000
    I19      I        0.49435    0.80463    0.53323    1.000
    I20      I        0.42598    0.78939    0.62391    1.000
    I21      I        0.44594    0.82693    0.41987    1.000
    I22      I        0.51748    0.55959    0.38355    1.000
    I23      I        0.17129    0.68278    0.66747    1.000
    I24      I        0.30415    0.84248    0.68727    1.000
    C109     C        0.30210    0.50470    0.65222    1.000
    H73      H        0.28990    0.47280    0.66960    1.000
    C110     C        0.32510    0.45000    0.63027    1.000
    H74      H        0.32890    0.38220    0.63280    1.000
    C111     C        0.31440    0.64340    0.62555    1.000
    H75      H        0.31120    0.71160    0.62380    1.000
    C112     C        0.33730    0.59420    0.60270    1.000
    H76      H        0.34940    0.62790    0.58570    1.000
    C113     C        0.34230    0.49530    0.60492    1.000
    C114     C        0.36720    0.44010    0.58101    1.000
    C115     C        0.42790    0.63250    0.47905    1.000
    H77      H        0.42300    0.70030    0.47700    1.000
    C116     C        0.41500    0.58860    0.50589    1.000
    H78      H        0.40170    0.62530    0.52200    1.000
    C117     C        0.45590    0.48800    0.45969    1.000
    H79      H        0.47150    0.45340    0.44400    1.000
    C118     C        0.44330    0.43950    0.48568    1.000
    H80      H        0.44930    0.37200    0.48760    1.000
    C119     C        0.42200    0.48990    0.50877    1.000
    C120     C        0.40610    0.43870    0.53627    1.000
    C121     C        0.44540    0.05180    0.54942    1.000
    H81      H        0.45650    0.01450    0.53280    1.000
    C122     C        0.43040    0.14500    0.54453    1.000
    H82      H        0.43160    0.17180    0.52480    1.000
    C123     C        0.42770    0.06480    0.59984    1.000
    H83      H        0.42640    0.03640    0.61930    1.000
    C124     C        0.41210    0.15760    0.59660    1.000
    H84      H        0.40050    0.19280    0.61350    1.000
    C125     C        0.41340    0.19990    0.56832    1.000
    C126     C        0.40020    0.30250    0.56369    1.000
    C127     C        0.54150    0.92930    0.63509    1.000
    H85      H        0.51200    0.93340    0.64590    1.000
    C128     C        0.58370    0.94390    0.65061    1.000
    H86      H        0.58330    0.95810    0.67160    1.000
    C129     C        0.58190    0.90560    0.59059    1.000
    H87      H        0.58130    0.89320    0.56950    1.000
    C130     C        0.62580    0.91880    0.60464    1.000
    H88      H        0.65490    0.91500    0.59340    1.000
    C131     C        0.62690    0.93760    0.63513    1.000
    C132     C        0.67380    0.95000    0.65062    1.000
    C133     C        0.84620    0.88610    0.59022    1.000
    H89      H        0.84700    0.86540    0.56980    1.000
    C134     C        0.80180    0.90240    0.60343    1.000
    H90      H        0.77280    0.89380    0.59230    1.000
    C135     C        0.88640    0.92920    0.63334    1.000
    H91      H        0.91600    0.94050    0.64360    1.000
    C136     C        0.84420    0.94530    0.64830    1.000
    H92      H        0.84450    0.96560    0.66870    1.000
    C137     C        0.80060    0.93150    0.63332    1.000
    C138     C        0.75440    0.94630    0.64945    1.000
    C139     C        0.76680    0.06230    0.76657    1.000
    H93      H        0.79690    0.05910    0.77680    1.000
    C140     C        0.76360    0.02300    0.73803    1.000
    H94      H        0.79120    0.99530    0.72870    1.000
    C141     C        0.68720    0.10400    0.76619    1.000
    H95      H        0.66040    0.13230    0.77610    1.000
    C142     C        0.68070    0.06490    0.73808    1.000
    H96      H        0.64980    0.06550    0.72890    1.000
    C143     C        0.72020    0.02430    0.72324    1.000
    C144     C        0.71640    0.98860    0.69218    1.000
    N37      N        0.29659    0.60070    0.64989    1.000
    N38      N        0.44679    0.58340    0.45595    1.000
    N39      N        0.44481    0.01140    0.57714    1.000
    N40      N        0.38192    0.49030    0.55711    1.000
    N41      N        0.41670    0.34550    0.53882    1.000
    N42      N        0.37453    0.34550    0.58529    1.000
    N43      N        0.53970    0.90970    0.60580    1.000
    N44      N        0.88761    0.89800    0.60455    1.000
    N45      N        0.73010    0.10400    0.78023    1.000
    N46      N        0.71357    0.93350    0.63455    1.000
    N47      N        0.75783    0.97360    0.67836    1.000
    N48      N        0.67267    0.97800    0.67961    1.000
    Zn13     Zn       0.02457    0.37777    0.58484    1.000
    Zn14     Zn       0.04735    0.14359    0.41386    1.000
    Zn15     Zn       0.23951    0.18171    0.68106    1.000
    I25      I        0.00565    0.30463    0.53323    1.000
    I26      I        0.07402    0.28939    0.62391    1.000
    I27      I        0.05406    0.32693    0.41987    1.000
    I28      I        0.98252    0.05959    0.38355    1.000
    I29      I        0.32871    0.18278    0.66747    1.000
    I30      I        0.19585    0.34248    0.68727    1.000
    C145     C        0.19790    0.00470    0.65222    1.000
    H97      H        0.21010    0.97280    0.66960    1.000
    C146     C        0.17490    0.95000    0.63027    1.000
    H98      H        0.17110    0.88220    0.63280    1.000
    C147     C        0.18560    0.14340    0.62555    1.000
    H99      H        0.18880    0.21160    0.62380    1.000
    C148     C        0.16270    0.09420    0.60270    1.000
    H100     H        0.15060    0.12790    0.58570    1.000
    C149     C        0.15770    0.99530    0.60492    1.000
    C150     C        0.13280    0.94010    0.58101    1.000
    C151     C        0.07210    0.13250    0.47905    1.000
    H101     H        0.07700    0.20030    0.47700    1.000
    C152     C        0.08500    0.08860    0.50589    1.000
    H102     H        0.09830    0.12530    0.52200    1.000
    C153     C        0.04410    0.98800    0.45969    1.000
    H103     H        0.02850    0.95340    0.44400    1.000
    C154     C        0.05670    0.93950    0.48568    1.000
    H104     H        0.05070    0.87200    0.48760    1.000
    C155     C        0.07800    0.98990    0.50877    1.000
    C156     C        0.09390    0.93870    0.53627    1.000
    C157     C        0.05460    0.55180    0.54942    1.000
    H105     H        0.04350    0.51450    0.53280    1.000
    C158     C        0.06960    0.64500    0.54453    1.000
    H106     H        0.06840    0.67180    0.52480    1.000
    C159     C        0.07230    0.56480    0.59984    1.000
    H107     H        0.07360    0.53640    0.61930    1.000
    C160     C        0.08790    0.65760    0.59660    1.000
    H108     H        0.09950    0.69280    0.61350    1.000
    C161     C        0.08660    0.69990    0.56832    1.000
    C162     C        0.09980    0.80250    0.56369    1.000
    C163     C        0.95850    0.42930    0.63509    1.000
    H109     H        0.98800    0.43340    0.64590    1.000
    C164     C        0.91630    0.44390    0.65061    1.000
    H110     H        0.91670    0.45810    0.67160    1.000
    C165     C        0.91810    0.40560    0.59059    1.000
    H111     H        0.91870    0.39320    0.56950    1.000
    C166     C        0.87420    0.41880    0.60464    1.000
    H112     H        0.84510    0.41500    0.59340    1.000
    C167     C        0.87310    0.43760    0.63513    1.000
    C168     C        0.82620    0.45000    0.65062    1.000
    C169     C        0.65380    0.38610    0.59022    1.000
    H113     H        0.65300    0.36540    0.56980    1.000
    C170     C        0.69820    0.40240    0.60343    1.000
    H114     H        0.72720    0.39380    0.59230    1.000
    C171     C        0.61360    0.42920    0.63334    1.000
    H115     H        0.58400    0.44050    0.64360    1.000
    C172     C        0.65580    0.44530    0.64830    1.000
    H116     H        0.65550    0.46560    0.66870    1.000
    C173     C        0.69940    0.43150    0.63332    1.000
    C174     C        0.74560    0.44630    0.64945    1.000
    C175     C        0.73320    0.56230    0.76657    1.000
    H117     H        0.70310    0.55910    0.77680    1.000
    C176     C        0.73640    0.52300    0.73803    1.000
    H118     H        0.70880    0.49530    0.72870    1.000
    C177     C        0.81280    0.60400    0.76619    1.000
    H119     H        0.83960    0.63230    0.77610    1.000
    C178     C        0.81930    0.56490    0.73808    1.000
    H120     H        0.85020    0.56550    0.72890    1.000
    C179     C        0.77980    0.52430    0.72324    1.000
    C180     C        0.78360    0.48860    0.69218    1.000
    N49      N        0.20341    0.10070    0.64989    1.000
    N50      N        0.05321    0.08340    0.45595    1.000
    N51      N        0.05519    0.51140    0.57714    1.000
    N52      N        0.11808    0.99030    0.55711    1.000
    N53      N        0.08330    0.84550    0.53882    1.000
    N54      N        0.12547    0.84550    0.58529    1.000
    N55      N        0.96030    0.40970    0.60580    1.000
    N56      N        0.61239    0.39800    0.60455    1.000
    N57      N        0.76990    0.60400    0.78023    1.000
    N58      N        0.78643    0.43350    0.63455    1.000
    N59      N        0.74217    0.47360    0.67836    1.000
    N60      N        0.82733    0.47800    0.67961    1.000
    Zn16     Zn       0.47543    0.62223    0.08484    1.000
    Zn17     Zn       0.45265    0.85641    0.91386    1.000
    Zn18     Zn       0.26049    0.81829    0.18106    1.000
    I31      I        0.49435    0.69537    0.03323    1.000
    I32      I        0.42598    0.71061    0.12391    1.000
    I33      I        0.44594    0.67307    0.91987    1.000
    I34      I        0.51748    0.94041    0.88355    1.000
    I35      I        0.17129    0.81722    0.16747    1.000
    I36      I        0.30415    0.65752    0.18727    1.000
    C181     C        0.30210    0.99530    0.15222    1.000
    H121     H        0.28990    0.02720    0.16960    1.000
    C182     C        0.32510    0.05000    0.13027    1.000
    H122     H        0.32890    0.11780    0.13280    1.000
    C183     C        0.31440    0.85660    0.12555    1.000
    H123     H        0.31120    0.78840    0.12380    1.000
    C184     C        0.33730    0.90580    0.10270    1.000
    H124     H        0.34940    0.87210    0.08570    1.000
    C185     C        0.34230    0.00470    0.10492    1.000
    C186     C        0.36720    0.05990    0.08101    1.000
    C187     C        0.42790    0.86750    0.97905    1.000
    H125     H        0.42300    0.79970    0.97700    1.000
    C188     C        0.41500    0.91140    0.00589    1.000
    H126     H        0.40170    0.87470    0.02200    1.000
    C189     C        0.45590    0.01200    0.95969    1.000
    H127     H        0.47150    0.04660    0.94400    1.000
    C190     C        0.44330    0.06050    0.98568    1.000
    H128     H        0.44930    0.12800    0.98760    1.000
    C191     C        0.42200    0.01010    0.00877    1.000
    C192     C        0.40610    0.06130    0.03627    1.000
    C193     C        0.44540    0.44820    0.04942    1.000
    H129     H        0.45650    0.48550    0.03280    1.000
    C194     C        0.43040    0.35500    0.04453    1.000
    H130     H        0.43160    0.32820    0.02480    1.000
    C195     C        0.42770    0.43520    0.09984    1.000
    H131     H        0.42640    0.46360    0.11930    1.000
    C196     C        0.41210    0.34240    0.09660    1.000
    H132     H        0.40050    0.30720    0.11350    1.000
    C197     C        0.41340    0.30010    0.06832    1.000
    C198     C        0.40020    0.19750    0.06369    1.000
    C199     C        0.54150    0.57070    0.13509    1.000
    H133     H        0.51200    0.56660    0.14590    1.000
    C200     C        0.58370    0.55610    0.15061    1.000
    H134     H        0.58330    0.54190    0.17160    1.000
    C201     C        0.58190    0.59440    0.09059    1.000
    H135     H        0.58130    0.60680    0.06950    1.000
    C202     C        0.62580    0.58120    0.10464    1.000
    H136     H        0.65490    0.58500    0.09340    1.000
    C203     C        0.62690    0.56240    0.13513    1.000
    C204     C        0.67380    0.55000    0.15062    1.000
    C205     C        0.84620    0.61390    0.09022    1.000
    H137     H        0.84700    0.63460    0.06980    1.000
    C206     C        0.80180    0.59760    0.10343    1.000
    H138     H        0.77280    0.60620    0.09230    1.000
    C207     C        0.88640    0.57080    0.13334    1.000
    H139     H        0.91600    0.55950    0.14360    1.000
    C208     C        0.84420    0.55470    0.14830    1.000
    H140     H        0.84450    0.53440    0.16870    1.000
    C209     C        0.80060    0.56850    0.13332    1.000
    C210     C        0.75440    0.55370    0.14945    1.000
    C211     C        0.76680    0.43770    0.26657    1.000
    H141     H        0.79690    0.44090    0.27680    1.000
    C212     C        0.76360    0.47700    0.23803    1.000
    H142     H        0.79120    0.50470    0.22870    1.000
    C213     C        0.68720    0.39600    0.26619    1.000
    H143     H        0.66040    0.36770    0.27610    1.000
    C214     C        0.68070    0.43510    0.23808    1.000
    H144     H        0.64980    0.43450    0.22890    1.000
    C215     C        0.72020    0.47570    0.22324    1.000
    C216     C        0.71640    0.51140    0.19218    1.000
    N61      N        0.29659    0.89930    0.14989    1.000
    N62      N        0.44679    0.91660    0.95595    1.000
    N63      N        0.44481    0.48860    0.07714    1.000
    N64      N        0.38192    0.00970    0.05711    1.000
    N65      N        0.41670    0.15450    0.03882    1.000
    N66      N        0.37453    0.15450    0.08529    1.000
    N67      N        0.53970    0.59030    0.10580    1.000
    N68      N        0.88761    0.60200    0.10455    1.000
    N69      N        0.73010    0.39600    0.28023    1.000
    N70      N        0.71357    0.56650    0.13455    1.000
    N71      N        0.75783    0.52640    0.17836    1.000
    N72      N        0.67267    0.52200    0.17961    1.000
    Zn19     Zn       0.97543    0.87777    0.91516    1.000
    Zn20     Zn       0.95265    0.64359    0.08614    1.000
    Zn21     Zn       0.76049    0.68171    0.81894    1.000
    I37      I        0.99435    0.80463    0.96677    1.000
    I38      I        0.92598    0.78939    0.87609    1.000
    I39      I        0.94594    0.82693    0.08013    1.000
    I40      I        0.01748    0.55959    0.11645    1.000
    I41      I        0.67129    0.68278    0.83253    1.000
    I42      I        0.80415    0.84248    0.81273    1.000
    C217     C        0.80210    0.50470    0.84778    1.000
    H145     H        0.78990    0.47280    0.83040    1.000
    C218     C        0.82510    0.45000    0.86973    1.000
    H146     H        0.82890    0.38220    0.86720    1.000
    C219     C        0.81440    0.64340    0.87445    1.000
    H147     H        0.81120    0.71160    0.87620    1.000
    C220     C        0.83730    0.59420    0.89730    1.000
    H148     H        0.84940    0.62790    0.91430    1.000
    C221     C        0.84230    0.49530    0.89508    1.000
    C222     C        0.86720    0.44010    0.91899    1.000
    C223     C        0.92790    0.63250    0.02095    1.000
    H149     H        0.92300    0.70030    0.02300    1.000
    C224     C        0.91500    0.58860    0.99411    1.000
    H150     H        0.90170    0.62530    0.97800    1.000
    C225     C        0.95590    0.48800    0.04031    1.000
    H151     H        0.97150    0.45340    0.05600    1.000
    C226     C        0.94330    0.43950    0.01432    1.000
    H152     H        0.94930    0.37200    0.01240    1.000
    C227     C        0.92200    0.48990    0.99123    1.000
    C228     C        0.90610    0.43870    0.96373    1.000
    C229     C        0.94540    0.05180    0.95058    1.000
    H153     H        0.95650    0.01450    0.96720    1.000
    C230     C        0.93040    0.14500    0.95547    1.000
    H154     H        0.93160    0.17180    0.97520    1.000
    C231     C        0.92770    0.06480    0.90016    1.000
    H155     H        0.92640    0.03640    0.88070    1.000
    C232     C        0.91210    0.15760    0.90340    1.000
    H156     H        0.90050    0.19280    0.88650    1.000
    C233     C        0.91340    0.19990    0.93168    1.000
    C234     C        0.90020    0.30250    0.93631    1.000
    C235     C        0.04150    0.92930    0.86491    1.000
    H157     H        0.01200    0.93340    0.85410    1.000
    C236     C        0.08370    0.94390    0.84939    1.000
    H158     H        0.08330    0.95810    0.82840    1.000
    C237     C        0.08190    0.90560    0.90941    1.000
    H159     H        0.08130    0.89320    0.93050    1.000
    C238     C        0.12580    0.91880    0.89536    1.000
    H160     H        0.15490    0.91500    0.90660    1.000
    C239     C        0.12690    0.93760    0.86487    1.000
    C240     C        0.17380    0.95000    0.84938    1.000
    C241     C        0.34620    0.88610    0.90978    1.000
    H161     H        0.34700    0.86540    0.93020    1.000
    C242     C        0.30180    0.90240    0.89657    1.000
    H162     H        0.27280    0.89380    0.90770    1.000
    C243     C        0.38640    0.92920    0.86666    1.000
    H163     H        0.41600    0.94050    0.85640    1.000
    C244     C        0.34420    0.94530    0.85170    1.000
    H164     H        0.34450    0.96560    0.83130    1.000
    C245     C        0.30060    0.93150    0.86668    1.000
    C246     C        0.25440    0.94630    0.85055    1.000
    C247     C        0.26680    0.06230    0.73343    1.000
    H165     H        0.29690    0.05910    0.72320    1.000
    C248     C        0.26360    0.02300    0.76197    1.000
    H166     H        0.29120    0.99530    0.77130    1.000
    C249     C        0.18720    0.10400    0.73381    1.000
    H167     H        0.16040    0.13230    0.72390    1.000
    C250     C        0.18070    0.06490    0.76192    1.000
    H168     H        0.14980    0.06550    0.77110    1.000
    C251     C        0.22020    0.02430    0.77676    1.000
    C252     C        0.21640    0.98860    0.80782    1.000
    N73      N        0.79659    0.60070    0.85011    1.000
    N74      N        0.94679    0.58340    0.04405    1.000
    N75      N        0.94481    0.01140    0.92286    1.000
    N76      N        0.88192    0.49030    0.94289    1.000
    N77      N        0.91670    0.34550    0.96118    1.000
    N78      N        0.87453    0.34550    0.91471    1.000
    N79      N        0.03970    0.90970    0.89420    1.000
    N80      N        0.38761    0.89800    0.89545    1.000
    N81      N        0.23010    0.10400    0.71977    1.000
    N82      N        0.21357    0.93350    0.86545    1.000
    N83      N        0.25783    0.97360    0.82164    1.000
    N84      N        0.17267    0.97800    0.82039    1.000
    Zn22     Zn       0.52457    0.12223    0.41516    1.000
    Zn23     Zn       0.54735    0.35641    0.58614    1.000
    Zn24     Zn       0.73951    0.31829    0.31894    1.000
    I43      I        0.50565    0.19537    0.46677    1.000
    I44      I        0.57402    0.21061    0.37609    1.000
    I45      I        0.55406    0.17307    0.58013    1.000
    I46      I        0.48252    0.44041    0.61645    1.000
    I47      I        0.82871    0.31722    0.33253    1.000
    I48      I        0.69585    0.15752    0.31273    1.000
    C253     C        0.69790    0.49530    0.34778    1.000
    H169     H        0.71010    0.52720    0.33040    1.000
    C254     C        0.67490    0.55000    0.36973    1.000
    H170     H        0.67110    0.61780    0.36720    1.000
    C255     C        0.68560    0.35660    0.37445    1.000
    H171     H        0.68880    0.28840    0.37620    1.000
    C256     C        0.66270    0.40580    0.39730    1.000
    H172     H        0.65060    0.37210    0.41430    1.000
    C257     C        0.65770    0.50470    0.39508    1.000
    C258     C        0.63280    0.55990    0.41899    1.000
    C259     C        0.57210    0.36750    0.52095    1.000
    H173     H        0.57700    0.29970    0.52300    1.000
    C260     C        0.58500    0.41140    0.49411    1.000
    H174     H        0.59830    0.37470    0.47800    1.000
    C261     C        0.54410    0.51200    0.54031    1.000
    H175     H        0.52850    0.54660    0.55600    1.000
    C262     C        0.55670    0.56050    0.51432    1.000
    H176     H        0.55070    0.62800    0.51240    1.000
    C263     C        0.57800    0.51010    0.49123    1.000
    C264     C        0.59390    0.56130    0.46373    1.000
    C265     C        0.55460    0.94820    0.45058    1.000
    H177     H        0.54350    0.98550    0.46720    1.000
    C266     C        0.56960    0.85500    0.45547    1.000
    H178     H        0.56840    0.82820    0.47520    1.000
    C267     C        0.57230    0.93520    0.40016    1.000
    H179     H        0.57360    0.96360    0.38070    1.000
    C268     C        0.58790    0.84240    0.40340    1.000
    H180     H        0.59950    0.80720    0.38650    1.000
    C269     C        0.58660    0.80010    0.43168    1.000
    C270     C        0.59980    0.69750    0.43631    1.000
    C271     C        0.45850    0.07070    0.36491    1.000
    H181     H        0.48800    0.06660    0.35410    1.000
    C272     C        0.41630    0.05610    0.34939    1.000
    H182     H        0.41670    0.04190    0.32840    1.000
    C273     C        0.41810    0.09440    0.40941    1.000
    H183     H        0.41870    0.10680    0.43050    1.000
    C274     C        0.37420    0.08120    0.39536    1.000
    H184     H        0.34510    0.08500    0.40660    1.000
    C275     C        0.37310    0.06240    0.36487    1.000
    C276     C        0.32620    0.05000    0.34938    1.000
    C277     C        0.15380    0.11390    0.40978    1.000
    H185     H        0.15300    0.13460    0.43020    1.000
    C278     C        0.19820    0.09760    0.39657    1.000
    H186     H        0.22720    0.10620    0.40770    1.000
    C279     C        0.11360    0.07080    0.36666    1.000
    H187     H        0.08400    0.05950    0.35640    1.000
    C280     C        0.15580    0.05470    0.35170    1.000
    H188     H        0.15550    0.03440    0.33130    1.000
    C281     C        0.19940    0.06850    0.36668    1.000
    C282     C        0.24560    0.05370    0.35055    1.000
    C283     C        0.23320    0.93770    0.23343    1.000
    H189     H        0.20310    0.94090    0.22320    1.000
    C284     C        0.23640    0.97700    0.26197    1.000
    H190     H        0.20880    0.00470    0.27130    1.000
    C285     C        0.31280    0.89600    0.23381    1.000
    H191     H        0.33960    0.86770    0.22390    1.000
    C286     C        0.31930    0.93510    0.26192    1.000
    H192     H        0.35020    0.93450    0.27110    1.000
    C287     C        0.27980    0.97570    0.27676    1.000
    C288     C        0.28360    0.01140    0.30782    1.000
    N85      N        0.70341    0.39930    0.35011    1.000
    N86      N        0.55321    0.41660    0.54405    1.000
    N87      N        0.55519    0.98860    0.42286    1.000
    N88      N        0.61808    0.50970    0.44289    1.000
    N89      N        0.58330    0.65450    0.46118    1.000
    N90      N        0.62547    0.65450    0.41471    1.000
    N91      N        0.46030    0.09030    0.39420    1.000
    N92      N        0.11239    0.10200    0.39545    1.000
    N93      N        0.26990    0.89600    0.21977    1.000
    N94      N        0.28643    0.06650    0.36545    1.000
    N95      N        0.24217    0.02640    0.32164    1.000
    N96      N        0.32733    0.02200    0.32039    1.000
