# CIF file generated by openbabel 3.1.0, see https://openbabel.org
data_I
_chemical_name_common 'image0'
_cell_length_a 8.8749
_cell_length_b 7.4104
_cell_length_c 15.2333
_cell_angle_alpha 90
_cell_angle_beta 102.172
_cell_angle_gamma 90
_space_group_name_H-M_alt 'P 1'
_space_group_name_Hall 'P 1'
loop_
    _symmetry_equiv_pos_as_xyz
    x,y,z
loop_
    _atom_site_label
    _atom_site_type_symbol
    _atom_site_fract_x
    _atom_site_fract_y
    _atom_site_fract_z
    _atom_site_occupancy
    Co1      Co       0.78969    0.52945    0.10589    1.000
    P1       P        0.87064    0.88556    0.23356    1.000
    H1       H        0.99600    0.94540    0.28450    1.000
    O1       O        0.81810    0.02850    0.15844    1.000
    H2       H        0.79990    0.12420    0.18120    1.000
    O2       O        0.75340    0.86440    0.29171    1.000
    O3       O        0.91137    0.71650    0.19059    1.000
    O4       O        0.65498    0.35150    0.01205    1.000
    O5       O        0.42537    0.33880    0.91894    1.000
    O6       O        0.99412    0.38780    0.10056    1.000
    O7       O        0.15160    0.34830    0.00600    1.000
    C1       C        0.52300    0.41030    0.98032    1.000
    C2       C        0.04170    0.42450    0.03060    1.000
    Co2      Co       0.71031    0.02945    0.39411    1.000
    P2       P        0.62936    0.38556    0.26644    1.000
    H3       H        0.50400    0.44540    0.21550    1.000
    O8       O        0.68190    0.52850    0.34156    1.000
    H4       H        0.70010    0.62420    0.31880    1.000
    O9       O        0.74660    0.36440    0.20829    1.000
    O10      O        0.58863    0.21650    0.30941    1.000
    O11      O        0.84502    0.85150    0.48795    1.000
    O12      O        0.07463    0.83880    0.58106    1.000
    O13      O        0.50588    0.88780    0.39944    1.000
    O14      O        0.34840    0.84830    0.49400    1.000
    C3       C        0.97700    0.91030    0.51968    1.000
    C4       C        0.45830    0.92450    0.46940    1.000
    Co3      Co       0.21031    0.47055    0.89411    1.000
    P3       P        0.12936    0.11444    0.76644    1.000
    H5       H        0.00400    0.05460    0.71550    1.000
    O15      O        0.18190    0.97150    0.84156    1.000
    H6       H        0.20010    0.87580    0.81880    1.000
    O16      O        0.24660    0.13560    0.70829    1.000
    O17      O        0.08863    0.28350    0.80941    1.000
    O18      O        0.34502    0.64850    0.98795    1.000
    O19      O        0.57463    0.66120    0.08106    1.000
    O20      O        0.00588    0.61220    0.89944    1.000
    O21      O        0.84840    0.65170    0.99400    1.000
    C5       C        0.47700    0.58970    0.01968    1.000
    C6       C        0.95830    0.57550    0.96940    1.000
    Co4      Co       0.28969    0.97055    0.60589    1.000
    P4       P        0.37064    0.61444    0.73356    1.000
    H7       H        0.49600    0.55460    0.78450    1.000
    O22      O        0.31810    0.47150    0.65844    1.000
    H8       H        0.29990    0.37580    0.68120    1.000
    O23      O        0.25340    0.63560    0.79171    1.000
    O24      O        0.41137    0.78350    0.69059    1.000
    O25      O        0.15498    0.14850    0.51205    1.000
    O26      O        0.92537    0.16120    0.41894    1.000
    O27      O        0.49412    0.11220    0.60056    1.000
    O28      O        0.65160    0.15170    0.50600    1.000
    C7       C        0.02300    0.08970    0.48032    1.000
    C8       C        0.54170    0.07550    0.53060    1.000
