# CIF file generated by openbabel 3.1.0, see https://openbabel.org
data_I
_chemical_name_common 'image0'
_cell_length_a 11.665
_cell_length_b 11.924
_cell_length_c 13.223
_cell_angle_alpha 104.585
_cell_angle_beta 108.268
_cell_angle_gamma 111.132
_space_group_name_H-M_alt 'P 1'
_space_group_name_Hall 'P 1'
loop_
    _symmetry_equiv_pos_as_xyz
    x,y,z
loop_
    _atom_site_label
    _atom_site_type_symbol
    _atom_site_fract_x
    _atom_site_fract_y
    _atom_site_fract_z
    _atom_site_occupancy
    La1      La       0.74998    0.08746    0.92504    1.000
    La2      La       0.25888    0.59055    0.42086    1.000
    O1       O        0.09430    0.50190    0.20040    1.000
    O2       O        0.91330    0.33690    0.03970    1.000
    O3       O        0.09000    0.33680    0.30650    1.000
    O4       O        0.89760    0.17460    0.14950    1.000
    O5       O        0.62230    0.30680    0.69620    1.000
    O6       O        0.64700    0.22050    0.82940    1.000
    O7       O        0.82540    0.16070    0.77460    1.000
    O8       O        0.78130    0.22500    0.62950    1.000
    O9       O        0.48680    0.94630    0.77640    1.000
    O10      O        0.32230    0.77490    0.60920    1.000
    O11      O        0.51880    0.76020    0.54990    1.000
    O12      O        0.67460    0.88840    0.73620    1.000
    O13      O        0.00380    0.13690    0.97220    1.000
    O14      O        0.17140    0.08520    0.03320    1.000
    O15      O        0.61130    0.15800    0.01990    1.000
    O16      O        0.40170    0.07970    0.01370    1.000
    O17      O        0.39700    0.47850    0.36050    1.000
    O18      O        0.59930    0.48030    0.42970    1.000
    O19      O        0.01870    0.55940    0.39600    1.000
    O20      O        0.84680    0.50660    0.44680    1.000
    C1       C        0.00110    0.38450    0.14280    1.000
    C2       C        0.99500    0.29070    0.20430    1.000
    C3       C        0.67060    0.24910    0.75060    1.000
    C4       C        0.76710    0.20800    0.71480    1.000
    C5       C        0.44550    0.85370    0.68130    1.000
    C6       C        0.55620    0.83260    0.65370    1.000
    C7       C        0.05090    0.06370    0.00120    1.000
    C8       C        0.50270    0.06840    0.00930    1.000
    C9       C        0.49910    0.48840    0.43980    1.000
    C10      C        0.96200    0.51990    0.45600    1.000
    La3      La       0.25002    0.91254    0.07496    1.000
    La4      La       0.74112    0.40945    0.57914    1.000
    O21      O        0.90570    0.49810    0.79960    1.000
    O22      O        0.08670    0.66310    0.96030    1.000
    O23      O        0.91000    0.66320    0.69350    1.000
    O24      O        0.10240    0.82540    0.85050    1.000
    O25      O        0.37770    0.69320    0.30380    1.000
    O26      O        0.35300    0.77950    0.17060    1.000
    O27      O        0.17460    0.83930    0.22540    1.000
    O28      O        0.21870    0.77500    0.37050    1.000
    O29      O        0.51320    0.05370    0.22360    1.000
    O30      O        0.67770    0.22510    0.39080    1.000
    O31      O        0.48120    0.23980    0.45010    1.000
    O32      O        0.32540    0.11160    0.26380    1.000
    O33      O        0.99620    0.86310    0.02780    1.000
    O34      O        0.82860    0.91480    0.96680    1.000
    O35      O        0.38870    0.84200    0.98010    1.000
    O36      O        0.59830    0.92030    0.98630    1.000
    O37      O        0.60300    0.52150    0.63950    1.000
    O38      O        0.40070    0.51970    0.57030    1.000
    O39      O        0.98130    0.44060    0.60400    1.000
    O40      O        0.15320    0.49340    0.55320    1.000
    C11      C        0.99890    0.61550    0.85720    1.000
    C12      C        0.00500    0.70930    0.79570    1.000
    C13      C        0.32940    0.75090    0.24940    1.000
    C14      C        0.23290    0.79200    0.28520    1.000
    C15      C        0.55450    0.14630    0.31870    1.000
    C16      C        0.44380    0.16740    0.34630    1.000
    C17      C        0.94910    0.93630    0.99880    1.000
    C18      C        0.49730    0.93160    0.99070    1.000
    C19      C        0.50090    0.51160    0.56020    1.000
    C20      C        0.03800    0.48010    0.54400    1.000
