# CIF file generated by openbabel 3.1.0, see https://openbabel.org
data_I
_chemical_name_common 'image0'
_cell_length_a 20.4375
_cell_length_b 7.8496
_cell_length_c 6.5934
_cell_angle_alpha 90
_cell_angle_beta 111.801
_cell_angle_gamma 90
_space_group_name_H-M_alt 'P 1'
_space_group_name_Hall 'P 1'
loop_
    _symmetry_equiv_pos_as_xyz
    x,y,z
loop_
    _atom_site_label
    _atom_site_type_symbol
    _atom_site_fract_x
    _atom_site_fract_y
    _atom_site_fract_z
    _atom_site_occupancy
    Al1      Al       0.00000    0.00000    0.00000    1.000
    C1       C        0.17955    0.76771    0.46013    1.000
    C2       C        0.20641    0.70650    0.30465    1.000
    C3       C        0.27883    0.66656    0.36956    1.000
    C4       C        0.32438    0.68783    0.58994    1.000
    C5       C        0.29751    0.74905    0.74542    1.000
    C6       C        0.22510    0.78899    0.68051    1.000
    C7       C        0.10713    0.80770    0.39522    1.000
    O1       O        0.06716    0.78900    0.20182    1.000
    O2       O        0.08356    0.86140    0.53165    1.000
    C8       C        0.39679    0.64790    0.65485    1.000
    O3       O        0.42037    0.59420    0.51842    1.000
    O4       O        0.43676    0.66660    0.84825    1.000
    N1       N        0.16086    0.68523    0.08427    1.000
    O5       O        0.00260    0.88970    0.73900    1.000
    Al2      Al       0.50000    0.50000    0.00000    1.000
    C9       C        0.67955    0.26771    0.46013    1.000
    C10      C        0.70641    0.20650    0.30465    1.000
    C11      C        0.77883    0.16656    0.36956    1.000
    C12      C        0.82438    0.18783    0.58994    1.000
    C13      C        0.79751    0.24905    0.74542    1.000
    C14      C        0.72510    0.28899    0.68051    1.000
    C15      C        0.60713    0.30770    0.39522    1.000
    O6       O        0.56716    0.28900    0.20182    1.000
    O7       O        0.58356    0.36140    0.53165    1.000
    C16      C        0.89679    0.14790    0.65485    1.000
    O8       O        0.92037    0.09420    0.51842    1.000
    O9       O        0.93676    0.16660    0.84825    1.000
    N2       N        0.66086    0.18523    0.08427    1.000
    O10      O        0.50260    0.38970    0.73900    1.000
    Al3      Al       0.00000    0.00000    0.50000    1.000
    C17      C        0.17955    0.23229    0.96013    1.000
    C18      C        0.20641    0.29350    0.80465    1.000
    C19      C        0.27883    0.33344    0.86956    1.000
    C20      C        0.32438    0.31217    0.08994    1.000
    C21      C        0.29751    0.25095    0.24542    1.000
    C22      C        0.22510    0.21101    0.18051    1.000
    C23      C        0.10713    0.19230    0.89522    1.000
    O11      O        0.06716    0.21100    0.70182    1.000
    O12      O        0.08356    0.13860    0.03165    1.000
    C24      C        0.39679    0.35210    0.15485    1.000
    O13      O        0.42037    0.40580    0.01842    1.000
    O14      O        0.43676    0.33340    0.34825    1.000
    N3       N        0.16086    0.31477    0.58427    1.000
    O15      O        0.00260    0.11030    0.23900    1.000
    Al4      Al       0.50000    0.50000    0.50000    1.000
    C25      C        0.67955    0.73229    0.96013    1.000
    C26      C        0.70641    0.79350    0.80465    1.000
    C27      C        0.77883    0.83344    0.86956    1.000
    C28      C        0.82438    0.81217    0.08994    1.000
    C29      C        0.79751    0.75095    0.24542    1.000
    C30      C        0.72510    0.71101    0.18051    1.000
    C31      C        0.60713    0.69230    0.89522    1.000
    O16      O        0.56716    0.71100    0.70182    1.000
    O17      O        0.58356    0.63860    0.03165    1.000
    C32      C        0.89679    0.85210    0.15485    1.000
    O18      O        0.92037    0.90580    0.01842    1.000
    O19      O        0.93676    0.83340    0.34825    1.000
    N4       N        0.66086    0.81477    0.58427    1.000
    O20      O        0.50260    0.61030    0.23900    1.000
