# CIF file generated by openbabel 3.1.0, see https://openbabel.org
data_I
_chemical_name_common 'image0'
_cell_length_a 13.5114
_cell_length_b 13.5114
_cell_length_c 8.0589
_cell_angle_alpha 90
_cell_angle_beta 90
_cell_angle_gamma 120
_space_group_name_H-M_alt 'P 1'
_space_group_name_Hall 'P 1'
loop_
    _symmetry_equiv_pos_as_xyz
    x,y,z
loop_
    _atom_site_label
    _atom_site_type_symbol
    _atom_site_fract_x
    _atom_site_fract_y
    _atom_site_fract_z
    _atom_site_occupancy
    Mn1      Mn       0.30247    0.33808    0.54568    1.000
    O1       O        0.22890    0.18047    0.40650    1.000
    C1       C        0.53511    0.32253    0.54880    1.000
    C2       C        0.35407    0.55993    0.77650    1.000
    O2       O        0.24345    0.05717    0.24514    1.000
    C3       C        0.26635    0.15693    0.27990    1.000
    N1       N        0.34674    0.20787    0.99970    1.000
    H1       H        0.41120    0.25590    0.94480    1.000
    H2       H        0.28640    0.19770    0.93910    1.000
    C4       C        0.34533    0.25423    0.16350    1.000
    H3       H        0.42270    0.28650    0.20860    1.000
    N2       N        0.36706    0.42788    0.30220    1.000
    H4       H        0.34990    0.48410    0.29470    1.000
    H5       H        0.44370    0.46060    0.30040    1.000
    C5       C        0.31960    0.35242    0.15510    1.000
    H6       H        0.35280    0.39660    0.05500    1.000
    H7       H        0.23760    0.32150    0.15060    1.000
    N3       N        0.45571    0.32051    0.60580    1.000
    N4       N        0.36818    0.49968    0.69040    1.000
    Mn2      Mn       0.66192    0.96439    0.54568    1.000
    O3       O        0.81953    0.04843    0.40650    1.000
    C6       C        0.67747    0.21258    0.54880    1.000
    C7       C        0.44007    0.79414    0.77650    1.000
    O4       O        0.94283    0.18628    0.24514    1.000
    C8       C        0.84307    0.10942    0.27990    1.000
    N5       N        0.79213    0.13887    0.99970    1.000
    H8       H        0.74410    0.15530    0.94480    1.000
    H9       H        0.80230    0.08870    0.93910    1.000
    C9       C        0.74577    0.09110    0.16350    1.000
    H10      H        0.71350    0.13620    0.20860    1.000
    N6       N        0.57212    0.93918    0.30220    1.000
    H11      H        0.51590    0.86580    0.29470    1.000
    H12      H        0.53940    0.98310    0.30040    1.000
    C10      C        0.64758    0.96718    0.15510    1.000
    H13      H        0.60340    0.95620    0.05500    1.000
    H14      H        0.67850    0.91610    0.15060    1.000
    N7       N        0.67949    0.13520    0.60580    1.000
    N8       N        0.50032    0.86850    0.69040    1.000
    Mn3      Mn       0.03561    0.69753    0.54568    1.000
    O5       O        0.95157    0.77110    0.40650    1.000
    C11      C        0.78742    0.46489    0.54880    1.000
    C12      C        0.20586    0.64593    0.77650    1.000
    O6       O        0.81372    0.75655    0.24514    1.000
    C13      C        0.89058    0.73365    0.27990    1.000
    N9       N        0.86113    0.65326    0.99970    1.000
    H15      H        0.84470    0.58880    0.94480    1.000
    H16      H        0.91130    0.71360    0.93910    1.000
    C14      C        0.90890    0.65467    0.16350    1.000
    H17      H        0.86380    0.57730    0.20860    1.000
    N10      N        0.06082    0.63294    0.30220    1.000
    H18      H        0.13420    0.65010    0.29470    1.000
    H19      H        0.01690    0.55630    0.30040    1.000
    C15      C        0.03282    0.68040    0.15510    1.000
    H20      H        0.04380    0.64720    0.05500    1.000
    H21      H        0.08390    0.76240    0.15060    1.000
    N11      N        0.86480    0.54429    0.60580    1.000
    N12      N        0.13150    0.63182    0.69040    1.000
    Mn4      Mn       0.69753    0.66192    0.04568    1.000
    O7       O        0.77110    0.81953    0.90650    1.000
    C16      C        0.46489    0.67747    0.04880    1.000
    C17      C        0.64593    0.44007    0.27650    1.000
    O8       O        0.75655    0.94283    0.74514    1.000
    C18      C        0.73365    0.84307    0.77990    1.000
    N13      N        0.65326    0.79213    0.49970    1.000
    H22      H        0.58880    0.74410    0.44480    1.000
    H23      H        0.71360    0.80230    0.43910    1.000
    C19      C        0.65467    0.74577    0.66350    1.000
    H24      H        0.57730    0.71350    0.70860    1.000
    N14      N        0.63294    0.57212    0.80220    1.000
    H25      H        0.65010    0.51590    0.79470    1.000
    H26      H        0.55630    0.53940    0.80040    1.000
    C20      C        0.68040    0.64758    0.65510    1.000
    H27      H        0.64720    0.60340    0.55500    1.000
    H28      H        0.76240    0.67850    0.65060    1.000
    N15      N        0.54429    0.67949    0.10580    1.000
    N16      N        0.63182    0.50032    0.19040    1.000
    Mn5      Mn       0.33808    0.03561    0.04568    1.000
    O9       O        0.18047    0.95157    0.90650    1.000
    C21      C        0.32253    0.78742    0.04880    1.000
    C22      C        0.55993    0.20586    0.27650    1.000
    O10      O        0.05717    0.81372    0.74514    1.000
    C23      C        0.15693    0.89058    0.77990    1.000
    N17      N        0.20787    0.86113    0.49970    1.000
    H29      H        0.25590    0.84470    0.44480    1.000
    H30      H        0.19770    0.91130    0.43910    1.000
    C24      C        0.25423    0.90890    0.66350    1.000
    H31      H        0.28650    0.86380    0.70860    1.000
    N18      N        0.42788    0.06082    0.80220    1.000
    H32      H        0.48410    0.13420    0.79470    1.000
    H33      H        0.46060    0.01690    0.80040    1.000
    C25      C        0.35242    0.03282    0.65510    1.000
    H34      H        0.39660    0.04380    0.55500    1.000
    H35      H        0.32150    0.08390    0.65060    1.000
    N19      N        0.32051    0.86480    0.10580    1.000
    N20      N        0.49968    0.13150    0.19040    1.000
    Mn6      Mn       0.96439    0.30247    0.04568    1.000
    O11      O        0.04843    0.22890    0.90650    1.000
    C26      C        0.21258    0.53511    0.04880    1.000
    C27      C        0.79414    0.35407    0.27650    1.000
    O12      O        0.18628    0.24345    0.74514    1.000
    C28      C        0.10942    0.26635    0.77990    1.000
    N21      N        0.13887    0.34674    0.49970    1.000
    H36      H        0.15530    0.41120    0.44480    1.000
    H37      H        0.08870    0.28640    0.43910    1.000
    C29      C        0.09110    0.34533    0.66350    1.000
    H38      H        0.13620    0.42270    0.70860    1.000
    N22      N        0.93918    0.36706    0.80220    1.000
    H39      H        0.86580    0.34990    0.79470    1.000
    H40      H        0.98310    0.44370    0.80040    1.000
    C30      C        0.96718    0.31960    0.65510    1.000
    H41      H        0.95620    0.35280    0.55500    1.000
    H42      H        0.91610    0.23760    0.65060    1.000
    N23      N        0.13520    0.45571    0.10580    1.000
    N24      N        0.86850    0.36818    0.19040    1.000
    Mn7      Mn       0.33333    0.66667    0.92125    1.000
    Mn8      Mn       0.66667    0.33333    0.42125    1.000
