# CIF file generated by openbabel 3.1.0, see https://openbabel.org
data_I
_chemical_name_common 'IXOFUX_clean'
_cell_length_a 6.827
_cell_length_b 13.965
_cell_length_c 16.073
_cell_angle_alpha 90
_cell_angle_beta 90
_cell_angle_gamma 90
_space_group_name_H-M_alt 'P 1'
_space_group_name_Hall 'P 1'
loop_
    _symmetry_equiv_pos_as_xyz
    x,y,z
loop_
    _atom_site_label
    _atom_site_type_symbol
    _atom_site_fract_x
    _atom_site_fract_y
    _atom_site_fract_z
    _atom_site_occupancy
    V1       V        0.93488    0.23585    0.49911    1.000
    V2       V        0.56512    0.76415    0.99911    1.000
    V3       V        0.06512    0.73585    0.00089    1.000
    V4       V        0.43488    0.26415    0.50089    1.000
    H1       H        0.55190    0.98150    0.17980    1.000
    H2       H        0.53130    0.08780    0.28680    1.000
    H3       H        0.94820    0.05210    0.29320    1.000
    H4       H        0.96890    0.95230    0.18120    1.000
    H5       H        0.94810    0.01850    0.67980    1.000
    H6       H        0.96870    0.91220    0.78680    1.000
    H7       H        0.55180    0.94790    0.79320    1.000
    H8       H        0.53110    0.04770    0.68120    1.000
    H9       H        0.44810    0.48150    0.32020    1.000
    H10      H        0.46870    0.58780    0.21320    1.000
    H11      H        0.05180    0.55210    0.20680    1.000
    H12      H        0.03110    0.45230    0.31880    1.000
    H13      H        0.05190    0.51850    0.82020    1.000
    H14      H        0.03130    0.41220    0.71320    1.000
    H15      H        0.44820    0.44790    0.70680    1.000
    H16      H        0.46890    0.54770    0.81880    1.000
    C1       C        0.27790    0.87950    0.10460    1.000
    C2       C        0.26150    0.95260    0.17040    1.000
    C3       C        0.43020    0.99600    0.20250    1.000
    C4       C        0.41770    0.05940    0.26650    1.000
    C5       C        0.22420    0.14620    0.37580    1.000
    C6       C        0.23780    0.08260    0.30250    1.000
    C7       C        0.06990    0.03910    0.26980    1.000
    C8       C        0.08290    0.97770    0.20390    1.000
    C9       C        0.22210    0.12050    0.60460    1.000
    C10      C        0.23850    0.04740    0.67040    1.000
    C11      C        0.06980    0.00400    0.70250    1.000
    C12      C        0.08230    0.94060    0.76650    1.000
    C13      C        0.27580    0.85380    0.87580    1.000
    C14      C        0.26220    0.91740    0.80250    1.000
    C15      C        0.43010    0.96090    0.76980    1.000
    C16      C        0.41710    0.02230    0.70390    1.000
    C17      C        0.72210    0.37950    0.39540    1.000
    C18      C        0.73850    0.45260    0.32960    1.000
    C19      C        0.56980    0.49600    0.29750    1.000
    C20      C        0.58230    0.55940    0.23350    1.000
    C21      C        0.77580    0.64620    0.12420    1.000
    C22      C        0.76220    0.58260    0.19750    1.000
    C23      C        0.93010    0.53910    0.23020    1.000
    C24      C        0.91710    0.47770    0.29610    1.000
    C25      C        0.77790    0.62050    0.89540    1.000
    C26      C        0.76150    0.54740    0.82960    1.000
    C27      C        0.93020    0.50400    0.79750    1.000
    C28      C        0.91770    0.44060    0.73350    1.000
    C29      C        0.72420    0.35380    0.62420    1.000
    C30      C        0.73780    0.41740    0.69750    1.000
    C31      C        0.56990    0.46090    0.73020    1.000
    C32      C        0.58290    0.52230    0.79610    1.000
    O1       O        0.71770    0.19120    0.49420    1.000
    O2       O        0.44370    0.85720    0.07850    1.000
    O3       O        0.05590    0.16600    0.40530    1.000
    O4       O        0.11640    0.84260    0.07620    1.000
    O5       O        0.38280    0.18070    0.40310    1.000
    O6       O        0.78230    0.80880    0.99420    1.000
    O7       O        0.05630    0.14280    0.57850    1.000
    O8       O        0.44410    0.83400    0.90530    1.000
    O9       O        0.38360    0.15740    0.57620    1.000
    O10      O        0.11720    0.81930    0.90310    1.000
    O11      O        0.28230    0.69120    0.00580    1.000
    O12      O        0.55630    0.35720    0.42150    1.000
    O13      O        0.94410    0.66600    0.09470    1.000
    O14      O        0.88360    0.34260    0.42380    1.000
    O15      O        0.61720    0.68070    0.09690    1.000
    O16      O        0.21770    0.30880    0.50580    1.000
    O17      O        0.94370    0.64280    0.92150    1.000
    O18      O        0.55590    0.33400    0.59470    1.000
    O19      O        0.61640    0.65740    0.92380    1.000
    O20      O        0.88280    0.31930    0.59690    1.000
