# CIF file generated by openbabel 3.1.0, see https://openbabel.org
data_I
_chemical_name_common 'image0'
_cell_length_a 16.7033
_cell_length_b 20.0195
_cell_length_c 17.4602
_cell_angle_alpha 90
_cell_angle_beta 100.423
_cell_angle_gamma 90
_space_group_name_H-M_alt 'P 1'
_space_group_name_Hall 'P 1'
loop_
    _symmetry_equiv_pos_as_xyz
    x,y,z
loop_
    _atom_site_label
    _atom_site_type_symbol
    _atom_site_fract_x
    _atom_site_fract_y
    _atom_site_fract_z
    _atom_site_occupancy
    Co1      Co       0.03884    0.16495    0.25465    1.000
    Co2      Co       0.14356    0.12542    0.44473    1.000
    Co3      Co       0.91311    0.14345    0.05737    1.000
    S1       S        0.55103    0.27362    0.26788    1.000
    S2       S        0.39628    0.01533    0.04112    1.000
    S3       S        0.55563    0.06881    0.34144    1.000
    N1       N        0.23340    0.04920    0.43430    1.000
    O1       O        0.52150    0.26590    0.83800    1.000
    O2       O        0.91760    0.13730    0.25100    1.000
    O3       O        0.16140    0.19140    0.26250    1.000
    O4       O        0.05480    0.09930    0.16420    1.000
    O5       O        0.49440    0.73970    0.33020    1.000
    O6       O        0.42790    0.58590    0.16570    1.000
    O7       O        0.21360    0.18340    0.39130    1.000
    O8       O        0.55750    0.30730    0.96040    1.000
    O9       O        0.42820    0.53980    0.05130    1.000
    O10      O        0.01390    0.10650    0.03500    1.000
    O11      O        0.85120    0.10540    0.13220    1.000
    O12      O        0.58940    0.74180    0.43750    1.000
    O13      O        0.60300    0.27870    0.34340    1.000
    O14      O        0.57360    0.23080    0.20870    1.000
    O15      O        0.44510    0.00030    0.11620    1.000
    O16      O        0.38760    0.96660    0.97900    1.000
    O17      O        0.48630    0.08600    0.28390    1.000
    O18      O        0.56630    0.09900    0.41800    1.000
    C1       C        0.21760    0.19530    0.32030    1.000
    C2       C        0.30110    0.21550    0.30620    1.000
    C3       C        0.36170    0.22730    0.37090    1.000
    H1       H        0.35070    0.22280    0.42100    1.000
    C4       C        0.43830    0.24570    0.35940    1.000
    H2       H        0.47920    0.25510    0.40170    1.000
    C5       C        0.45340    0.24990    0.28360    1.000
    C6       C        0.39380    0.23790    0.21870    1.000
    H3       H        0.40560    0.24100    0.16870    1.000
    C7       C        0.31650    0.22120    0.23000    1.000
    H4       H        0.27510    0.21370    0.18750    1.000
    C8       C        0.53420    0.35490    0.22740    1.000
    C9       C        0.52250    0.40760    0.27610    1.000
    H5       H        0.53100    0.40190    0.32980    1.000
    C10      C        0.49790    0.46930    0.24290    1.000
    H6       H        0.48920    0.50500    0.27440    1.000
    C11      C        0.48640    0.47720    0.16250    1.000
    C12      C        0.50410    0.42480    0.11520    1.000
    H7       H        0.49970    0.43120    0.06190    1.000
    C13      C        0.52830    0.36340    0.14830    1.000
    H8       H        0.54040    0.32830    0.11740    1.000
    C14      C        0.44700    0.53860    0.12400    1.000
    C15      C        0.06630    0.09400    0.09500    1.000
    C16      C        0.14740    0.07240    0.08220    1.000
    C17      C        0.21270    0.07430    0.14380    1.000
    H9       H        0.20480    0.08710    0.19310    1.000
    C18      C        0.28920    0.05710    0.13170    1.000
    H10      H        0.33380    0.05990    0.17200    1.000
    C19      C        0.29870    0.03540    0.05770    1.000
    C20      C        0.23350    0.03100    0.99610    1.000
    H11      H        0.24090    0.01540    0.94770    1.000
    C21      C        0.15880    0.05010    0.00810    1.000
    H12      H        0.11470    0.04850    0.96720    1.000
    C22      C        0.43120    0.09000    0.00570    1.000
    C23      C        0.47430    0.13530    0.05620    1.000
    H13      H        0.48330    0.12780    0.10970    1.000
    C24      C        0.50450    0.19270    0.02580    1.000
    H14      H        0.53400    0.22370    0.05920    1.000
    C25      C        0.49030    0.20390    0.94490    1.000
    C26      C        0.44550    0.15740    0.89500    1.000
    H15      H        0.43550    0.16500    0.84160    1.000
    C27      C        0.41620    0.10070    0.92420    1.000
    H16      H        0.38680    0.06950    0.89080    1.000
    C28      C        0.52550    0.26400    0.91130    1.000
    C29      C        0.85710    0.11650    0.20510    1.000
    C30      C        0.78170    0.10400    0.23940    1.000
    C31      C        0.71180    0.08140    0.19190    1.000
    H17      H        0.71160    0.07310    0.13940    1.000
    C32      C        0.64210    0.07110    0.22240    1.000
    H18      H        0.59490    0.05570    0.19070    1.000
    C33      C        0.64300    0.08390    0.30060    1.000
    C34      C        0.71140    0.10810    0.34840    1.000
    H19      H        0.71100    0.11730    0.40060    1.000
    C35      C        0.78060    0.11840    0.31740    1.000
    H20      H        0.82720    0.13520    0.34890    1.000
    C36      C        0.55550    0.98100    0.35380    1.000
    C37      C        0.51590    0.94230    0.29240    1.000
    H21      H        0.49150    0.96190    0.24580    1.000
    C38      C        0.51380    0.87330    0.30230    1.000
    H22      H        0.48730    0.84670    0.26190    1.000
    C39      C        0.55090    0.84360    0.37210    1.000
    C40      C        0.59180    0.88380    0.43230    1.000
    H23      H        0.61780    0.86420    0.47850    1.000
    C41      C        0.59380    0.95210    0.42350    1.000
    H24      H        0.62050    0.97870    0.46380    1.000
    C42      C        0.54400    0.76890    0.37980    1.000
    C43      C        0.27750    0.03740    0.40260    1.000
    C44      C        0.34390    0.02780    0.34330    1.000
    H25      H        0.31530    0.01820    0.29170    1.000
    H26      H        0.38000    0.99160    0.36140    1.000
    H27      H        0.37470    0.06820    0.34250    1.000
    Co4      Co       0.46116    0.66495    0.24535    1.000
    Co5      Co       0.35644    0.62542    0.05527    1.000
    Co6      Co       0.58689    0.64345    0.44263    1.000
    S4       S        0.94897    0.77362    0.23212    1.000
    S5       S        0.10372    0.51533    0.45888    1.000
    S6       S        0.94437    0.56881    0.15856    1.000
    N2       N        0.26660    0.54920    0.06570    1.000
    O19      O        0.97850    0.76590    0.66200    1.000
    O20      O        0.58240    0.63730    0.24900    1.000
    O21      O        0.33860    0.69140    0.23750    1.000
    O22      O        0.44520    0.59930    0.33580    1.000
    O23      O        0.00560    0.23970    0.16980    1.000
    O24      O        0.07210    0.08590    0.33430    1.000
    O25      O        0.28640    0.68340    0.10870    1.000
    O26      O        0.94250    0.80730    0.53960    1.000
    O27      O        0.07180    0.03980    0.44870    1.000
    O28      O        0.48610    0.60650    0.46500    1.000
    O29      O        0.64880    0.60540    0.36780    1.000
    O30      O        0.91060    0.24180    0.06250    1.000
    O31      O        0.89700    0.77870    0.15660    1.000
    O32      O        0.92640    0.73080    0.29130    1.000
    O33      O        0.05490    0.50030    0.38380    1.000
    O34      O        0.11240    0.46660    0.52100    1.000
    O35      O        0.01370    0.58600    0.21610    1.000
    O36      O        0.93370    0.59900    0.08200    1.000
    C45      C        0.28240    0.69530    0.17970    1.000
    C46      C        0.19890    0.71550    0.19380    1.000
    C47      C        0.13830    0.72730    0.12910    1.000
    H28      H        0.14930    0.72280    0.07900    1.000
    C48      C        0.06170    0.74570    0.14060    1.000
    H29      H        0.02080    0.75510    0.09830    1.000
    C49      C        0.04660    0.74990    0.21640    1.000
    C50      C        0.10620    0.73790    0.28130    1.000
    H30      H        0.09440    0.74100    0.33130    1.000
    C51      C        0.18350    0.72120    0.27000    1.000
    H31      H        0.22490    0.71370    0.31250    1.000
    C52      C        0.96580    0.85490    0.27260    1.000
    C53      C        0.97750    0.90760    0.22390    1.000
    H32      H        0.96900    0.90190    0.17020    1.000
    C54      C        0.00210    0.96930    0.25710    1.000
    H33      H        0.01080    0.00500    0.22560    1.000
    C55      C        0.01360    0.97720    0.33750    1.000
    C56      C        0.99590    0.92480    0.38480    1.000
    H34      H        0.00030    0.93120    0.43810    1.000
    C57      C        0.97170    0.86340    0.35170    1.000
    H35      H        0.95960    0.82830    0.38260    1.000
    C58      C        0.05300    0.03860    0.37600    1.000
    C59      C        0.43370    0.59400    0.40500    1.000
    C60      C        0.35260    0.57240    0.41780    1.000
    C61      C        0.28730    0.57430    0.35620    1.000
    H36      H        0.29520    0.58710    0.30690    1.000
    C62      C        0.21080    0.55710    0.36830    1.000
    H37      H        0.16620    0.55990    0.32800    1.000
    C63      C        0.20130    0.53540    0.44230    1.000
    C64      C        0.26650    0.53100    0.50390    1.000
    H38      H        0.25910    0.51540    0.55230    1.000
    C65      C        0.34120    0.55010    0.49190    1.000
    H39      H        0.38530    0.54850    0.53280    1.000
    C66      C        0.06880    0.59000    0.49430    1.000
    C67      C        0.02570    0.63530    0.44380    1.000
    H40      H        0.01670    0.62780    0.39030    1.000
    C68      C        0.99550    0.69270    0.47420    1.000
    H41      H        0.96600    0.72370    0.44080    1.000
    C69      C        0.00970    0.70390    0.55510    1.000
    C70      C        0.05450    0.65740    0.60500    1.000
    H42      H        0.06450    0.66500    0.65840    1.000
    C71      C        0.08380    0.60070    0.57580    1.000
    H43      H        0.11320    0.56950    0.60920    1.000
    C72      C        0.97450    0.76400    0.58870    1.000
    C73      C        0.64290    0.61650    0.29490    1.000
    C74      C        0.71830    0.60400    0.26060    1.000
    C75      C        0.78820    0.58140    0.30810    1.000
    H44      H        0.78840    0.57310    0.36060    1.000
    C76      C        0.85790    0.57110    0.27760    1.000
    H45      H        0.90510    0.55570    0.30930    1.000
    C77      C        0.85700    0.58390    0.19940    1.000
    C78      C        0.78860    0.60810    0.15160    1.000
    H46      H        0.78900    0.61730    0.09940    1.000
    C79      C        0.71940    0.61840    0.18260    1.000
    H47      H        0.67280    0.63520    0.15110    1.000
    C80      C        0.94450    0.48100    0.14620    1.000
    C81      C        0.98410    0.44230    0.20760    1.000
    H48      H        0.00850    0.46190    0.25420    1.000
    C82      C        0.98620    0.37330    0.19770    1.000
    H49      H        0.01270    0.34670    0.23810    1.000
    C83      C        0.94910    0.34360    0.12790    1.000
    C84      C        0.90820    0.38380    0.06770    1.000
    H50      H        0.88220    0.36420    0.02150    1.000
    C85      C        0.90620    0.45210    0.07650    1.000
    H51      H        0.87950    0.47870    0.03620    1.000
    C86      C        0.95600    0.26890    0.12020    1.000
    C87      C        0.22250    0.53740    0.09740    1.000
    C88      C        0.15610    0.52780    0.15670    1.000
    H52      H        0.18470    0.51820    0.20830    1.000
    H53      H        0.12000    0.49160    0.13860    1.000
    H54      H        0.12530    0.56820    0.15750    1.000
    Co7      Co       0.96116    0.83505    0.74535    1.000
    Co8      Co       0.85644    0.87458    0.55527    1.000
    Co9      Co       0.08689    0.85655    0.94263    1.000
    S7       S        0.44897    0.72638    0.73212    1.000
    S8       S        0.60372    0.98467    0.95888    1.000
    S9       S        0.44437    0.93119    0.65856    1.000
    N3       N        0.76660    0.95080    0.56570    1.000
    O37      O        0.47850    0.73410    0.16200    1.000
    O38      O        0.08240    0.86270    0.74900    1.000
    O39      O        0.83860    0.80860    0.73750    1.000
    O40      O        0.94520    0.90070    0.83580    1.000
    O41      O        0.50560    0.26030    0.66980    1.000
    O42      O        0.57210    0.41410    0.83430    1.000
    O43      O        0.78640    0.81660    0.60870    1.000
    O44      O        0.44250    0.69270    0.03960    1.000
    O45      O        0.57180    0.46020    0.94870    1.000
    O46      O        0.98610    0.89350    0.96500    1.000
    O47      O        0.14880    0.89460    0.86780    1.000
    O48      O        0.41060    0.25820    0.56250    1.000
    O49      O        0.39700    0.72130    0.65660    1.000
    O50      O        0.42640    0.76920    0.79130    1.000
    O51      O        0.55490    0.99970    0.88380    1.000
    O52      O        0.61240    0.03340    0.02100    1.000
    O53      O        0.51370    0.91400    0.71610    1.000
    O54      O        0.43370    0.90100    0.58200    1.000
    C89      C        0.78240    0.80470    0.67970    1.000
    C90      C        0.69890    0.78450    0.69380    1.000
    C91      C        0.63830    0.77270    0.62910    1.000
    H55      H        0.64930    0.77720    0.57900    1.000
    C92      C        0.56170    0.75430    0.64060    1.000
    H56      H        0.52080    0.74490    0.59830    1.000
    C93      C        0.54660    0.75010    0.71640    1.000
    C94      C        0.60620    0.76210    0.78130    1.000
    H57      H        0.59440    0.75900    0.83130    1.000
    C95      C        0.68350    0.77880    0.77000    1.000
    H58      H        0.72490    0.78630    0.81250    1.000
    C96      C        0.46580    0.64510    0.77260    1.000
    C97      C        0.47750    0.59240    0.72390    1.000
    H59      H        0.46900    0.59810    0.67020    1.000
    C98      C        0.50210    0.53070    0.75710    1.000
    H60      H        0.51080    0.49500    0.72560    1.000
    C99      C        0.51360    0.52280    0.83750    1.000
    C100     C        0.49590    0.57520    0.88480    1.000
    H61      H        0.50030    0.56880    0.93810    1.000
    C101     C        0.47170    0.63660    0.85170    1.000
    H62      H        0.45960    0.67170    0.88260    1.000
    C102     C        0.55300    0.46140    0.87600    1.000
    C103     C        0.93370    0.90600    0.90500    1.000
    C104     C        0.85260    0.92760    0.91780    1.000
    C105     C        0.78730    0.92570    0.85620    1.000
    H63      H        0.79520    0.91290    0.80690    1.000
    C106     C        0.71080    0.94290    0.86830    1.000
    H64      H        0.66620    0.94010    0.82800    1.000
    C107     C        0.70130    0.96460    0.94230    1.000
    C108     C        0.76650    0.96900    0.00390    1.000
    H65      H        0.75910    0.98460    0.05230    1.000
    C109     C        0.84120    0.94990    0.99190    1.000
    H66      H        0.88530    0.95150    0.03280    1.000
    C110     C        0.56880    0.91000    0.99430    1.000
    C111     C        0.52570    0.86470    0.94380    1.000
    H67      H        0.51670    0.87220    0.89030    1.000
    C112     C        0.49550    0.80730    0.97420    1.000
    H68      H        0.46600    0.77630    0.94080    1.000
    C113     C        0.50970    0.79610    0.05510    1.000
    C114     C        0.55450    0.84260    0.10500    1.000
    H69      H        0.56450    0.83500    0.15840    1.000
    C115     C        0.58380    0.89930    0.07580    1.000
    H70      H        0.61320    0.93050    0.10920    1.000
    C116     C        0.47450    0.73600    0.08870    1.000
    C117     C        0.14290    0.88350    0.79490    1.000
    C118     C        0.21830    0.89600    0.76060    1.000
    C119     C        0.28820    0.91860    0.80810    1.000
    H71      H        0.28840    0.92690    0.86060    1.000
    C120     C        0.35790    0.92890    0.77760    1.000
    H72      H        0.40510    0.94430    0.80930    1.000
    C121     C        0.35700    0.91610    0.69940    1.000
    C122     C        0.28860    0.89190    0.65160    1.000
    H73      H        0.28900    0.88270    0.59940    1.000
    C123     C        0.21940    0.88160    0.68260    1.000
    H74      H        0.17280    0.86480    0.65110    1.000
    C124     C        0.44450    0.01900    0.64620    1.000
    C125     C        0.48410    0.05770    0.70760    1.000
    H75      H        0.50850    0.03810    0.75420    1.000
    C126     C        0.48620    0.12670    0.69770    1.000
    H76      H        0.51270    0.15330    0.73810    1.000
    C127     C        0.44910    0.15640    0.62790    1.000
    C128     C        0.40820    0.11620    0.56770    1.000
    H77      H        0.38220    0.13580    0.52150    1.000
    C129     C        0.40620    0.04790    0.57650    1.000
    H78      H        0.37950    0.02130    0.53620    1.000
    C130     C        0.45600    0.23110    0.62020    1.000
    C131     C        0.72250    0.96260    0.59740    1.000
    C132     C        0.65610    0.97220    0.65670    1.000
    H79      H        0.68470    0.98180    0.70830    1.000
    H80      H        0.62000    0.00840    0.63860    1.000
    H81      H        0.62530    0.93180    0.65750    1.000
    Co10     Co       0.53884    0.33505    0.75465    1.000
    Co11     Co       0.64356    0.37458    0.94473    1.000
    Co12     Co       0.41311    0.35655    0.55737    1.000
    S10      S        0.05103    0.22638    0.76788    1.000
    S11      S        0.89628    0.48467    0.54112    1.000
    S12      S        0.05563    0.43119    0.84144    1.000
    N4       N        0.73340    0.45080    0.93430    1.000
    O55      O        0.02150    0.23410    0.33800    1.000
    O56      O        0.41760    0.36270    0.75100    1.000
    O57      O        0.66140    0.30860    0.76250    1.000
    O58      O        0.55480    0.40070    0.66420    1.000
    O59      O        0.99440    0.76030    0.83020    1.000
    O60      O        0.92790    0.91410    0.66570    1.000
    O61      O        0.71360    0.31660    0.89130    1.000
    O62      O        0.05750    0.19270    0.46040    1.000
    O63      O        0.92820    0.96020    0.55130    1.000
    O64      O        0.51390    0.39350    0.53500    1.000
    O65      O        0.35120    0.39460    0.63220    1.000
    O66      O        0.08940    0.75820    0.93750    1.000
    O67      O        0.10300    0.22130    0.84340    1.000
    O68      O        0.07360    0.26920    0.70870    1.000
    O69      O        0.94510    0.49970    0.61620    1.000
    O70      O        0.88760    0.53340    0.47900    1.000
    O71      O        0.98630    0.41400    0.78390    1.000
    O72      O        0.06630    0.40100    0.91800    1.000
    C133     C        0.71760    0.30470    0.82030    1.000
    C134     C        0.80110    0.28450    0.80620    1.000
    C135     C        0.86170    0.27270    0.87090    1.000
    H82      H        0.85070    0.27720    0.92100    1.000
    C136     C        0.93830    0.25430    0.85940    1.000
    H83      H        0.97920    0.24490    0.90170    1.000
    C137     C        0.95340    0.25010    0.78360    1.000
    C138     C        0.89380    0.26210    0.71870    1.000
    H84      H        0.90560    0.25900    0.66870    1.000
    C139     C        0.81650    0.27880    0.73000    1.000
    H85      H        0.77510    0.28630    0.68750    1.000
    C140     C        0.03420    0.14510    0.72740    1.000
    C141     C        0.02250    0.09240    0.77610    1.000
    H86      H        0.03100    0.09810    0.82980    1.000
    C142     C        0.99790    0.03070    0.74290    1.000
    H87      H        0.98920    0.99500    0.77440    1.000
    C143     C        0.98640    0.02280    0.66250    1.000
    C144     C        0.00410    0.07520    0.61520    1.000
    H88      H        0.99970    0.06880    0.56190    1.000
    C145     C        0.02830    0.13660    0.64830    1.000
    H89      H        0.04040    0.17170    0.61740    1.000
    C146     C        0.94700    0.96140    0.62400    1.000
    C147     C        0.56630    0.40600    0.59500    1.000
    C148     C        0.64740    0.42760    0.58220    1.000
    C149     C        0.71270    0.42570    0.64380    1.000
    H90      H        0.70480    0.41290    0.69310    1.000
    C150     C        0.78920    0.44290    0.63170    1.000
    H91      H        0.83380    0.44010    0.67200    1.000
    C151     C        0.79870    0.46460    0.55770    1.000
    C152     C        0.73350    0.46900    0.49610    1.000
    H92      H        0.74090    0.48460    0.44770    1.000
    C153     C        0.65880    0.44990    0.50810    1.000
    H93      H        0.61470    0.45150    0.46720    1.000
    C154     C        0.93120    0.41000    0.50570    1.000
    C155     C        0.97430    0.36470    0.55620    1.000
    H94      H        0.98330    0.37220    0.60970    1.000
    C156     C        0.00450    0.30730    0.52580    1.000
    H95      H        0.03400    0.27630    0.55920    1.000
    C157     C        0.99030    0.29610    0.44490    1.000
    C158     C        0.94550    0.34260    0.39500    1.000
    H96      H        0.93550    0.33500    0.34160    1.000
    C159     C        0.91620    0.39930    0.42420    1.000
    H97      H        0.88680    0.43050    0.39080    1.000
    C160     C        0.02550    0.23600    0.41130    1.000
    C161     C        0.35710    0.38350    0.70510    1.000
    C162     C        0.28170    0.39600    0.73940    1.000
    C163     C        0.21180    0.41860    0.69190    1.000
    H98      H        0.21160    0.42690    0.63940    1.000
    C164     C        0.14210    0.42890    0.72240    1.000
    H99      H        0.09490    0.44430    0.69070    1.000
    C165     C        0.14300    0.41610    0.80060    1.000
    C166     C        0.21140    0.39190    0.84840    1.000
    H100     H        0.21100    0.38270    0.90060    1.000
    C167     C        0.28060    0.38160    0.81740    1.000
    H101     H        0.32720    0.36480    0.84890    1.000
    C168     C        0.05550    0.51900    0.85380    1.000
    C169     C        0.01590    0.55770    0.79240    1.000
    H102     H        0.99150    0.53810    0.74580    1.000
    C170     C        0.01380    0.62670    0.80230    1.000
    H103     H        0.98730    0.65330    0.76190    1.000
    C171     C        0.05090    0.65640    0.87210    1.000
    C172     C        0.09180    0.61620    0.93230    1.000
    H104     H        0.11780    0.63580    0.97850    1.000
    C173     C        0.09380    0.54790    0.92350    1.000
    H105     H        0.12050    0.52130    0.96380    1.000
    C174     C        0.04400    0.73110    0.87980    1.000
    C175     C        0.77750    0.46260    0.90260    1.000
    C176     C        0.84390    0.47220    0.84330    1.000
    H106     H        0.81530    0.48180    0.79170    1.000
    H107     H        0.88000    0.50840    0.86140    1.000
    H108     H        0.87470    0.43180    0.84250    1.000
