# CIF file generated by openbabel 3.1.0, see https://openbabel.org
data_I
_chemical_name_common 'GIQYIP_clean'
_cell_length_a 9.6602
_cell_length_b 9.6602
_cell_length_c 15.625
_cell_angle_alpha 92.9053
_cell_angle_beta 92.9053
_cell_angle_gamma 99.1062
_space_group_name_H-M_alt 'P 1'
_space_group_name_Hall 'P 1'
loop_
    _symmetry_equiv_pos_as_xyz
    x,y,z
loop_
    _atom_site_label
    _atom_site_type_symbol
    _atom_site_fract_x
    _atom_site_fract_y
    _atom_site_fract_z
    _atom_site_occupancy
    Nd1      Nd       0.01135    0.98865    0.75000    1.000
    Nd2      Nd       0.98865    0.01135    0.25000    1.000
    P1       P        0.35531    0.04489    0.64424    1.000
    P2       P        0.65005    0.97491    0.65262    1.000
    P3       P        0.95511    0.64469    0.85576    1.000
    P4       P        0.02509    0.34995    0.84738    1.000
    P5       P        0.64469    0.95511    0.35576    1.000
    P6       P        0.34995    0.02509    0.34738    1.000
    P7       P        0.04489    0.35531    0.14424    1.000
    P8       P        0.97491    0.65005    0.15262    1.000
    H1       H        0.47860    0.15460    0.81630    1.000
    H2       H        0.63770    0.12850    0.81210    1.000
    H3       H        0.57540    0.22660    0.74550    1.000
    H4       H        0.41900    0.82500    0.73200    1.000
    H5       H        0.84540    0.52140    0.68370    1.000
    H6       H        0.87150    0.36230    0.68790    1.000
    H7       H        0.77340    0.42460    0.75450    1.000
    H8       H        0.17500    0.58100    0.76800    1.000
    H9       H        0.52140    0.84540    0.18370    1.000
    H10      H        0.36230    0.87150    0.18790    1.000
    H11      H        0.42460    0.77340    0.25450    1.000
    H12      H        0.58100    0.17500    0.26800    1.000
    H13      H        0.15460    0.47860    0.31630    1.000
    H14      H        0.12850    0.63770    0.31210    1.000
    H15      H        0.22660    0.57540    0.24550    1.000
    H16      H        0.82500    0.41900    0.23200    1.000
    Ru1      Ru       0.54603    0.12039    0.50221    1.000
    Ru2      Ru       0.87961    0.45397    0.99779    1.000
    Ru3      Ru       0.45397    0.87961    0.49779    1.000
    Ru4      Ru       0.12039    0.54603    0.00221    1.000
    C1       C        0.50580    0.01540    0.71620    1.000
    C2       C        0.55360    0.14260    0.77800    1.000
    C3       C        0.98460    0.49420    0.78380    1.000
    C4       C        0.85740    0.44640    0.72200    1.000
    C5       C        0.49420    0.98460    0.28380    1.000
    C6       C        0.44640    0.85740    0.22200    1.000
    C7       C        0.01540    0.50580    0.21620    1.000
    C8       C        0.14260    0.55360    0.27800    1.000
    O1       O        0.40970    0.16850    0.58889    1.000
    O2       O        0.31060    0.91000    0.58562    1.000
    O3       O        0.23540    0.07760    0.69856    1.000
    O4       O        0.69080    0.10180    0.59825    1.000
    O5       O        0.59252    0.84388    0.59238    1.000
    O6       O        0.76883    0.95137    0.71214    1.000
    O7       O        0.45010    0.89870    0.76600    1.000
    O8       O        0.83150    0.59030    0.91111    1.000
    O9       O        0.09000    0.68940    0.91438    1.000
    O10      O        0.92240    0.76460    0.80144    1.000
    O11      O        0.89820    0.30920    0.90175    1.000
    O12      O        0.15612    0.40748    0.90762    1.000
    O13      O        0.04863    0.23117    0.78786    1.000
    O14      O        0.10130    0.54990    0.73400    1.000
    O15      O        0.59030    0.83150    0.41111    1.000
    O16      O        0.68940    0.09000    0.41438    1.000
    O17      O        0.76460    0.92240    0.30144    1.000
    O18      O        0.30920    0.89820    0.40175    1.000
    O19      O        0.40748    0.15612    0.40762    1.000
    O20      O        0.23117    0.04863    0.28786    1.000
    O21      O        0.54990    0.10130    0.23400    1.000
    O22      O        0.16850    0.40970    0.08889    1.000
    O23      O        0.91000    0.31060    0.08562    1.000
    O24      O        0.07760    0.23540    0.19856    1.000
    O25      O        0.10180    0.69080    0.09825    1.000
    O26      O        0.84388    0.59252    0.09238    1.000
    O27      O        0.95137    0.76883    0.21214    1.000
    O28      O        0.89870    0.45010    0.26600    1.000
