# CIF file generated by openbabel 3.1.0, see https://openbabel.org
data_I
_chemical_name_common 'TONLOY_clean'
_cell_length_a 12.0736
_cell_length_b 16.1715
_cell_length_c 16.1715
_cell_angle_alpha 65.9773
_cell_angle_beta 75.5896
_cell_angle_gamma 104.41
_space_group_name_H-M_alt 'P 1'
_space_group_name_Hall 'P 1'
loop_
    _symmetry_equiv_pos_as_xyz
    x,y,z
loop_
    _atom_site_label
    _atom_site_type_symbol
    _atom_site_fract_x
    _atom_site_fract_y
    _atom_site_fract_z
    _atom_site_occupancy
    Cd1      Cd       0.00700    0.51400    0.74300    1.000
    Cd2      Cd       0.75000    0.74300    0.74300    1.000
    Cd3      Cd       0.49300    0.74300    0.51400    1.000
    H1       H        0.97840    0.60980    0.53070    1.000
    H2       H        0.12910    0.68420    0.36360    1.000
    H3       H        0.32000    0.51780    0.34870    1.000
    H4       H        0.41430    0.60910    0.24590    1.000
    H5       H        0.37220    0.71190    0.29320    1.000
    H6       H        0.41340    0.64140    0.36730    1.000
    H7       H        0.50910    0.53070    0.85950    1.000
    H8       H        0.49270    0.36360    0.95220    1.000
    H9       H        0.66870    0.34870    0.13350    1.000
    H10      H        0.66020    0.24590    0.14500    1.000
    H11      H        0.66540    0.29320    0.99490    1.000
    H12      H        0.78070    0.36730    0.99130    1.000
    H13      H        0.36860    0.85950    0.60980    1.000
    H14      H        0.44490    0.95220    0.68420    1.000
    H15      H        0.80220    0.13350    0.51780    1.000
    H16      H        0.80520    0.14500    0.60910    1.000
    H17      H        0.66030    0.99490    0.71190    1.000
    H18      H        0.77200    0.99130    0.64140    1.000
    H19      H        0.99090    0.85950    0.53070    1.000
    H20      H        0.00730    0.95220    0.36360    1.000
    H21      H        0.83130    0.13350    0.34870    1.000
    H22      H        0.83980    0.14500    0.24590    1.000
    H23      H        0.83460    0.99490    0.29320    1.000
    H24      H        0.71930    0.99130    0.36730    1.000
    H25      H        0.13140    0.60980    0.85950    1.000
    H26      H        0.05510    0.68420    0.95220    1.000
    H27      H        0.69780    0.51780    0.13350    1.000
    H28      H        0.69480    0.60910    0.14500    1.000
    H29      H        0.83970    0.71190    0.99490    1.000
    H30      H        0.72800    0.64140    0.99130    1.000
    H31      H        0.52160    0.53070    0.60980    1.000
    H32      H        0.37090    0.36360    0.68420    1.000
    H33      H        0.18000    0.34870    0.51780    1.000
    H34      H        0.08570    0.24590    0.60910    1.000
    H35      H        0.12780    0.29320    0.71190    1.000
    H36      H        0.08660    0.36730    0.64140    1.000
    C1       C        0.20770    0.56150    0.52380    1.000
    C2       C        0.05410    0.60360    0.51340    1.000
    C3       C        0.13710    0.64510    0.42080    1.000
    C4       C        0.33580    0.58420    0.30050    1.000
    C5       C        0.22620    0.58050    0.26020    1.000
    C6       C        0.34700    0.64420    0.34400    1.000
    C7       C        0.73150    0.52380    0.91470    1.000
    C8       C        0.56750    0.51340    0.88300    1.000
    C9       C        0.55790    0.42080    0.93410    1.000
    C10      C        0.63630    0.30050    0.11530    1.000
    C11      C        0.48640    0.26020    0.15930    1.000
    C12      C        0.69100    0.34400    0.01180    1.000
    C13      C        0.64620    0.91470    0.56150    1.000
    C14      C        0.45050    0.88300    0.60360    1.000
    C15      C        0.49200    0.93410    0.64510    1.000
    C16      C        0.75160    0.11530    0.58420    1.000
    C17      C        0.64570    0.15930    0.58050    1.000
    C18      C        0.70280    0.01180    0.64420    1.000
    C19      C        0.76850    0.91470    0.52380    1.000
    C20      C        0.93250    0.88300    0.51340    1.000
    C21      C        0.94210    0.93410    0.42080    1.000
    C22      C        0.86370    0.11530    0.30050    1.000
    C23      C        0.01360    0.15930    0.26020    1.000
    C24      C        0.80900    0.01180    0.34400    1.000
    C25      C        0.85380    0.56150    0.91470    1.000
    C26      C        0.04950    0.60360    0.88300    1.000
    C27      C        0.00800    0.64510    0.93410    1.000
    C28      C        0.74840    0.58420    0.11530    1.000
    C29      C        0.85430    0.58050    0.15930    1.000
    C30      C        0.79720    0.64420    0.01180    1.000
    C31      C        0.29230    0.52380    0.56150    1.000
    C32      C        0.44590    0.51340    0.60360    1.000
    C33      C        0.36290    0.42080    0.64510    1.000
    C34      C        0.16420    0.30050    0.58420    1.000
    C35      C        0.27380    0.26020    0.58050    1.000
    C36      C        0.15300    0.34400    0.64420    1.000
    N1       N        0.09720    0.55130    0.57840    1.000
    N2       N        0.23550    0.61900    0.42620    1.000
    N3       N        0.67560    0.57840    0.87030    1.000
    N4       N        0.66170    0.42620    0.95480    1.000
    N5       N        0.54590    0.87030    0.55130    1.000
    N6       N        0.61650    0.95480    0.61900    1.000
    N7       N        0.82440    0.87030    0.57840    1.000
    N8       N        0.83830    0.95480    0.42620    1.000
    N9       N        0.95410    0.55130    0.87030    1.000
    N10      N        0.88350    0.61900    0.95480    1.000
    N11      N        0.40280    0.57840    0.55130    1.000
    N12      N        0.26450    0.42620    0.61900    1.000
    O1       O        0.17770    0.63290    0.21840    1.000
    O2       O        0.17910    0.49340    0.28830    1.000
    O3       O        0.39610    0.21840    0.14870    1.000
    O4       O        0.46740    0.28830    0.21830    1.000
    O5       O        0.54480    0.14870    0.63290    1.000
    O6       O        0.68570    0.21830    0.49340    1.000
    O7       O        0.10390    0.14870    0.21840    1.000
    O8       O        0.03260    0.21830    0.28830    1.000
    O9       O        0.95520    0.63290    0.14870    1.000
    O10      O        0.81430    0.49340    0.21830    1.000
    O11      O        0.32230    0.21840    0.63290    1.000
    O12      O        0.32090    0.28830    0.49340    1.000
    Cd4      Cd       0.99300    0.48600    0.25700    1.000
    Cd5      Cd       0.25000    0.25700    0.25700    1.000
    Cd6      Cd       0.50700    0.25700    0.48600    1.000
    H37      H        0.02160    0.39020    0.46930    1.000
    H38      H        0.87090    0.31580    0.63640    1.000
    H39      H        0.68000    0.48220    0.65130    1.000
    H40      H        0.58570    0.39090    0.75410    1.000
    H41      H        0.62780    0.28810    0.70680    1.000
    H42      H        0.58660    0.35860    0.63270    1.000
    H43      H        0.49090    0.46930    0.14050    1.000
    H44      H        0.50730    0.63640    0.04780    1.000
    H45      H        0.33130    0.65130    0.86650    1.000
    H46      H        0.33980    0.75410    0.85500    1.000
    H47      H        0.33460    0.70680    0.00510    1.000
    H48      H        0.21930    0.63270    0.00870    1.000
    H49      H        0.63140    0.14050    0.39020    1.000
    H50      H        0.55510    0.04780    0.31580    1.000
    H51      H        0.19780    0.86650    0.48220    1.000
    H52      H        0.19480    0.85500    0.39090    1.000
    H53      H        0.33970    0.00510    0.28810    1.000
    H54      H        0.22800    0.00870    0.35860    1.000
    H55      H        0.00910    0.14050    0.46930    1.000
    H56      H        0.99270    0.04780    0.63640    1.000
    H57      H        0.16870    0.86650    0.65130    1.000
    H58      H        0.16020    0.85500    0.75410    1.000
    H59      H        0.16540    0.00510    0.70680    1.000
    H60      H        0.28070    0.00870    0.63270    1.000
    H61      H        0.86860    0.39020    0.14050    1.000
    H62      H        0.94490    0.31580    0.04780    1.000
    H63      H        0.30220    0.48220    0.86650    1.000
    H64      H        0.30520    0.39090    0.85500    1.000
    H65      H        0.16030    0.28810    0.00510    1.000
    H66      H        0.27200    0.35860    0.00870    1.000
    H67      H        0.47840    0.46930    0.39020    1.000
    H68      H        0.62910    0.63640    0.31580    1.000
    H69      H        0.82000    0.65130    0.48220    1.000
    H70      H        0.91430    0.75410    0.39090    1.000
    H71      H        0.87220    0.70680    0.28810    1.000
    H72      H        0.91340    0.63270    0.35860    1.000
    C37      C        0.79230    0.43850    0.47620    1.000
    C38      C        0.94590    0.39640    0.48660    1.000
    C39      C        0.86290    0.35490    0.57920    1.000
    C40      C        0.66420    0.41580    0.69950    1.000
    C41      C        0.77380    0.41950    0.73980    1.000
    C42      C        0.65300    0.35580    0.65600    1.000
    C43      C        0.26850    0.47620    0.08530    1.000
    C44      C        0.43250    0.48660    0.11700    1.000
    C45      C        0.44210    0.57920    0.06590    1.000
    C46      C        0.36370    0.69950    0.88470    1.000
    C47      C        0.51360    0.73980    0.84070    1.000
    C48      C        0.30900    0.65600    0.98820    1.000
    C49      C        0.35380    0.08530    0.43850    1.000
    C50      C        0.54950    0.11700    0.39640    1.000
    C51      C        0.50800    0.06590    0.35490    1.000
    C52      C        0.24840    0.88470    0.41580    1.000
    C53      C        0.35430    0.84070    0.41950    1.000
    C54      C        0.29720    0.98820    0.35580    1.000
    C55      C        0.23150    0.08530    0.47620    1.000
    C56      C        0.06750    0.11700    0.48660    1.000
    C57      C        0.05790    0.06590    0.57920    1.000
    C58      C        0.13630    0.88470    0.69950    1.000
    C59      C        0.98640    0.84070    0.73980    1.000
    C60      C        0.19100    0.98820    0.65600    1.000
    C61      C        0.14620    0.43850    0.08530    1.000
    C62      C        0.95050    0.39640    0.11700    1.000
    C63      C        0.99200    0.35490    0.06590    1.000
    C64      C        0.25160    0.41580    0.88470    1.000
    C65      C        0.14570    0.41950    0.84070    1.000
    C66      C        0.20280    0.35580    0.98820    1.000
    C67      C        0.70770    0.47620    0.43850    1.000
    C68      C        0.55410    0.48660    0.39640    1.000
    C69      C        0.63710    0.57920    0.35490    1.000
    C70      C        0.83580    0.69950    0.41580    1.000
    C71      C        0.72620    0.73980    0.41950    1.000
    C72      C        0.84700    0.65600    0.35580    1.000
    N13      N        0.90280    0.44870    0.42160    1.000
    N14      N        0.76450    0.38100    0.57380    1.000
    N15      N        0.32440    0.42160    0.12970    1.000
    N16      N        0.33830    0.57380    0.04520    1.000
    N17      N        0.45410    0.12970    0.44870    1.000
    N18      N        0.38350    0.04520    0.38100    1.000
    N19      N        0.17560    0.12970    0.42160    1.000
    N20      N        0.16170    0.04520    0.57380    1.000
    N21      N        0.04590    0.44870    0.12970    1.000
    N22      N        0.11650    0.38100    0.04520    1.000
    N23      N        0.59720    0.42160    0.44870    1.000
    N24      N        0.73550    0.57380    0.38100    1.000
    O13      O        0.82230    0.36710    0.78160    1.000
    O14      O        0.82090    0.50660    0.71170    1.000
    O15      O        0.60390    0.78160    0.85130    1.000
    O16      O        0.53260    0.71170    0.78170    1.000
    O17      O        0.45520    0.85130    0.36710    1.000
    O18      O        0.31430    0.78170    0.50660    1.000
    O19      O        0.89610    0.85130    0.78160    1.000
    O20      O        0.96740    0.78170    0.71170    1.000
    O21      O        0.04480    0.36710    0.85130    1.000
    O22      O        0.18570    0.50660    0.78170    1.000
    O23      O        0.67770    0.78160    0.36710    1.000
    O24      O        0.67910    0.71170    0.50660    1.000
