# CIF file generated by openbabel 3.1.0, see https://openbabel.org
data_I
_chemical_name_common 'image0'
_cell_length_a 18.3194
_cell_length_b 18.3194
_cell_length_c 65.6209
_cell_angle_alpha 90
_cell_angle_beta 90
_cell_angle_gamma 120
_space_group_name_H-M_alt 'P 1'
_space_group_name_Hall 'P 1'
loop_
    _symmetry_equiv_pos_as_xyz
    x,y,z
loop_
    _atom_site_label
    _atom_site_type_symbol
    _atom_site_fract_x
    _atom_site_fract_y
    _atom_site_fract_z
    _atom_site_occupancy
    Cu1      Cu       0.94951    0.47484    0.48369    1.000
    O1       O        0.02490    0.58800    0.47313    1.000
    O2       O        0.88860    0.51860    0.49959    1.000
    O3       O        0.02630    0.43840    0.47315    1.000
    O4       O        0.88820    0.36930    0.49962    1.000
    C1       C        0.09030    0.44900    0.48230    1.000
    C2       C        0.14780    0.42940    0.47270    1.000
    C3       C        0.21160    0.42550    0.48230    1.000
    C4       C        0.13730    0.40280    0.45290    1.000
    C5       C        0.28290    0.42780    0.47240    1.000
    H1       H        0.20910    0.42120    0.49650    1.000
    H2       H        0.09240    0.39920    0.44550    1.000
    C6       C        0.19120    0.38120    0.44360    1.000
    C7       C        0.26800    0.40370    0.45180    1.000
    C8       C        0.35970    0.44870    0.48220    1.000
    C9       C        0.18280    0.35940    0.42080    1.000
    H3       H        0.30990    0.40320    0.44390    1.000
    C10      C        0.18500    0.29100    0.41250    1.000
    C11      C        0.17530    0.41690    0.40820    1.000
    C12      C        0.19300    0.22900    0.42590    1.000
    C13      C        0.17960    0.27920    0.39130    1.000
    C14      C        0.17010    0.40520    0.38710    1.000
    H4       H        0.17370    0.46260    0.41390    1.000
    H5       H        0.24200    0.22610    0.42200    1.000
    H6       H        0.14380    0.17470    0.42460    1.000
    H7       H        0.19920    0.24770    0.43980    1.000
    C15      C        0.17310    0.33690    0.37870    1.000
    H8       H        0.18050    0.23310    0.38570    1.000
    C16      C        0.16200    0.46700    0.37360    1.000
    C17      C        0.17700    0.34400    0.35510    1.000
    H9       H        0.11090    0.46680    0.37690    1.000
    H10      H        0.15990    0.45010    0.35960    1.000
    H11      H        0.20930    0.52200    0.37560    1.000
    C18      C        0.14180    0.38570    0.34420    1.000
    C19      C        0.20320    0.28970    0.34460    1.000
    H12      H        0.12590    0.41960    0.35120    1.000
    C20      C        0.24040    0.24610    0.35650    1.000
    H13      H        0.29790    0.26750    0.35250    1.000
    H14      H        0.23830    0.25620    0.37080    1.000
    H15      H        0.20860    0.18650    0.35390    1.000
    C21      C        0.16500    0.75020    0.40850    1.000
    H16      H        0.16160    0.70230    0.41430    1.000
    C22      C        0.15840    0.75510    0.38740    1.000
    C23      C        0.17520    0.89390    0.39100    1.000
    H17      H        0.17860    0.94180    0.38520    1.000
    C24      C        0.18140    0.88870    0.41220    1.000
    C25      C        0.19400    0.96140    0.42520    1.000
    H18      H        0.18820    0.94530    0.43930    1.000
    H19      H        0.15270    0.97690    0.42180    1.000
    H20      H        0.24950    0.00850    0.42290    1.000
    C26      C        0.14570    0.68310    0.37420    1.000
    H21      H        0.14430    0.69710    0.36010    1.000
    H22      H        0.09340    0.63370    0.37760    1.000
    H23      H        0.19130    0.67220    0.37620    1.000
    Cu2      Cu       0.61618    0.80817    0.81702    1.000
    O5       O        0.69157    0.92133    0.80646    1.000
    O6       O        0.55527    0.85193    0.83292    1.000
    O7       O        0.69297    0.77173    0.80648    1.000
    O8       O        0.55487    0.70263    0.83295    1.000
    C27      C        0.75697    0.78233    0.81563    1.000
    C28      C        0.81447    0.76273    0.80603    1.000
    C29      C        0.87827    0.75883    0.81563    1.000
    C30      C        0.80397    0.73613    0.78623    1.000
    C31      C        0.94957    0.76113    0.80573    1.000
    H24      H        0.87577    0.75453    0.82983    1.000
    H25      H        0.75907    0.73253    0.77883    1.000
    C32      C        0.85787    0.71453    0.77693    1.000
    C33      C        0.93467    0.73703    0.78513    1.000
    C34      C        0.02637    0.78203    0.81553    1.000
    C35      C        0.84947    0.69273    0.75413    1.000
    H26      H        0.97657    0.73653    0.77723    1.000
    C36      C        0.85167    0.62433    0.74583    1.000
    C37      C        0.84197    0.75023    0.74153    1.000
    C38      C        0.85967    0.56233    0.75923    1.000
    C39      C        0.84627    0.61253    0.72463    1.000
    C40      C        0.83677    0.73853    0.72043    1.000
    H27      H        0.84037    0.79593    0.74723    1.000
    H28      H        0.90867    0.55943    0.75533    1.000
    H29      H        0.81047    0.50803    0.75793    1.000
    H30      H        0.86587    0.58103    0.77313    1.000
    C41      C        0.83977    0.67023    0.71203    1.000
    H31      H        0.84717    0.56643    0.71903    1.000
    C42      C        0.82867    0.80033    0.70693    1.000
    C43      C        0.84367    0.67733    0.68843    1.000
    H32      H        0.77757    0.80013    0.71023    1.000
    H33      H        0.82657    0.78343    0.69293    1.000
    H34      H        0.87597    0.85533    0.70893    1.000
    C44      C        0.80847    0.71903    0.67753    1.000
    C45      C        0.86987    0.62303    0.67793    1.000
    H35      H        0.79257    0.75293    0.68453    1.000
    C46      C        0.90707    0.57943    0.68983    1.000
    H36      H        0.96457    0.60083    0.68583    1.000
    H37      H        0.90497    0.58953    0.70413    1.000
    H38      H        0.87527    0.51983    0.68723    1.000
    C47      C        0.83167    0.08353    0.74183    1.000
    H39      H        0.82827    0.03563    0.74763    1.000
    C48      C        0.82507    0.08843    0.72073    1.000
    C49      C        0.84187    0.22723    0.72433    1.000
    H40      H        0.84527    0.27513    0.71853    1.000
    C50      C        0.84807    0.22203    0.74553    1.000
    C51      C        0.86067    0.29473    0.75853    1.000
    H41      H        0.85487    0.27863    0.77263    1.000
    H42      H        0.81937    0.31023    0.75513    1.000
    H43      H        0.91617    0.34183    0.75623    1.000
    C52      C        0.81237    0.01643    0.70753    1.000
    H44      H        0.81097    0.03043    0.69343    1.000
    H45      H        0.76007    0.96703    0.71093    1.000
    H46      H        0.85797    0.00553    0.70953    1.000
    Cu3      Cu       0.28284    0.14151    0.15036    1.000
    O9       O        0.35823    0.25467    0.13980    1.000
    O10      O        0.22193    0.18527    0.16626    1.000
    O11      O        0.35963    0.10507    0.13982    1.000
    O12      O        0.22153    0.03597    0.16629    1.000
    C53      C        0.42363    0.11567    0.14897    1.000
    C54      C        0.48113    0.09607    0.13937    1.000
    C55      C        0.54493    0.09217    0.14897    1.000
    C56      C        0.47063    0.06947    0.11957    1.000
    C57      C        0.61623    0.09447    0.13907    1.000
    H47      H        0.54243    0.08787    0.16317    1.000
    H48      H        0.42573    0.06587    0.11217    1.000
    C58      C        0.52453    0.04787    0.11027    1.000
    C59      C        0.60133    0.07037    0.11847    1.000
    C60      C        0.69303    0.11537    0.14887    1.000
    C61      C        0.51613    0.02607    0.08747    1.000
    H49      H        0.64323    0.06987    0.11057    1.000
    C62      C        0.51833    0.95767    0.07917    1.000
    C63      C        0.50863    0.08357    0.07487    1.000
    C64      C        0.52633    0.89567    0.09257    1.000
    C65      C        0.51293    0.94587    0.05797    1.000
    C66      C        0.50343    0.07187    0.05377    1.000
    H50      H        0.50703    0.12927    0.08057    1.000
    H51      H        0.57533    0.89277    0.08867    1.000
    H52      H        0.47713    0.84137    0.09127    1.000
    H53      H        0.53253    0.91437    0.10647    1.000
    C67      C        0.50643    0.00357    0.04537    1.000
    H54      H        0.51383    0.89977    0.05237    1.000
    C68      C        0.49533    0.13367    0.04027    1.000
    C69      C        0.51033    0.01067    0.02177    1.000
    H55      H        0.44423    0.13347    0.04357    1.000
    H56      H        0.49323    0.11677    0.02627    1.000
    H57      H        0.54263    0.18867    0.04227    1.000
    C70      C        0.47513    0.05237    0.01087    1.000
    C71      C        0.53653    0.95637    0.01127    1.000
    H58      H        0.45923    0.08627    0.01787    1.000
    C72      C        0.57373    0.91277    0.02317    1.000
    H59      H        0.63123    0.93417    0.01917    1.000
    H60      H        0.57163    0.92287    0.03747    1.000
    H61      H        0.54193    0.85317    0.02057    1.000
    C73      C        0.49833    0.41687    0.07517    1.000
    H62      H        0.49493    0.36897    0.08097    1.000
    C74      C        0.49173    0.42177    0.05407    1.000
    C75      C        0.50853    0.56057    0.05767    1.000
    H63      H        0.51193    0.60847    0.05187    1.000
    C76      C        0.51473    0.55537    0.07887    1.000
    C77      C        0.52733    0.62807    0.09187    1.000
    H64      H        0.52153    0.61197    0.10597    1.000
    H65      H        0.48603    0.64357    0.08847    1.000
    H66      H        0.58283    0.67517    0.08957    1.000
    C78      C        0.47903    0.34977    0.04087    1.000
    H67      H        0.47763    0.36377    0.02677    1.000
    H68      H        0.42673    0.30037    0.04427    1.000
    H69      H        0.52463    0.33887    0.04287    1.000
    Cu4      Cu       0.52516    0.47467    0.48369    1.000
    O13      O        0.41200    0.43690    0.47313    1.000
    O14      O        0.48140    0.37000    0.49959    1.000
    O15      O        0.56160    0.58790    0.47315    1.000
    O16      O        0.63070    0.51890    0.49962    1.000
    C79      C        0.55100    0.64130    0.48230    1.000
    C80      C        0.57060    0.71840    0.47270    1.000
    C81      C        0.57450    0.78610    0.48230    1.000
    C82      C        0.59720    0.73450    0.45290    1.000
    C83      C        0.57220    0.85510    0.47240    1.000
    H70      H        0.57880    0.78790    0.49650    1.000
    H71      H        0.60080    0.69320    0.44550    1.000
    C84      C        0.61880    0.81000    0.44360    1.000
    C85      C        0.59630    0.86430    0.45180    1.000
    C86      C        0.55130    0.91100    0.48220    1.000
    C87      C        0.64060    0.82340    0.42080    1.000
    H72      H        0.59680    0.90670    0.44390    1.000
    C88      C        0.70900    0.89400    0.41250    1.000
    C89      C        0.58310    0.75840    0.40820    1.000
    C90      C        0.77100    0.96400    0.42590    1.000
    C91      C        0.72080    0.90040    0.39130    1.000
    C92      C        0.59480    0.76490    0.38710    1.000
    H73      H        0.53740    0.71110    0.41390    1.000
    H74      H        0.77390    0.01590    0.42200    1.000
    H75      H        0.82530    0.96910    0.42460    1.000
    H76      H        0.75230    0.95150    0.43980    1.000
    C93      C        0.66310    0.83620    0.37870    1.000
    H77      H        0.76690    0.94740    0.38570    1.000
    C94      C        0.53300    0.69500    0.37360    1.000
    C95      C        0.65600    0.83300    0.35510    1.000
    H78      H        0.53320    0.64410    0.37690    1.000
    H79      H        0.54990    0.70980    0.35960    1.000
    H80      H        0.47800    0.68730    0.37560    1.000
    C96      C        0.61430    0.75610    0.34420    1.000
    C97      C        0.71030    0.91350    0.34460    1.000
    H81      H        0.58040    0.70630    0.35120    1.000
    C98      C        0.75390    0.99430    0.35650    1.000
    H82      H        0.73250    0.03040    0.35250    1.000
    H83      H        0.74380    0.98210    0.37080    1.000
    H84      H        0.81350    0.02210    0.35390    1.000
    C99      C        0.24980    0.41480    0.40850    1.000
    H85      H        0.29770    0.45930    0.41430    1.000
    C100     C        0.24490    0.40330    0.38740    1.000
    C101     C        0.10610    0.28130    0.39100    1.000
    H86      H        0.05820    0.23680    0.38520    1.000
    C102     C        0.11130    0.29270    0.41220    1.000
    C103     C        0.03860    0.23260    0.42520    1.000
    H87      H        0.05470    0.24290    0.43930    1.000
    H88      H        0.02310    0.17580    0.42180    1.000
    H89      H        0.99150    0.24100    0.42290    1.000
    C104     C        0.31690    0.46260    0.37420    1.000
    H90      H        0.30290    0.44720    0.36010    1.000
    H91      H        0.36630    0.45970    0.37760    1.000
    H92      H        0.32780    0.51910    0.37620    1.000
    Cu5      Cu       0.19183    0.80800    0.81702    1.000
    O17      O        0.07867    0.77023    0.80646    1.000
    O18      O        0.14807    0.70333    0.83292    1.000
    O19      O        0.22827    0.92123    0.80648    1.000
    O20      O        0.29737    0.85223    0.83295    1.000
    C105     C        0.21767    0.97463    0.81563    1.000
    C106     C        0.23727    0.05173    0.80603    1.000
    C107     C        0.24117    0.11943    0.81563    1.000
    C108     C        0.26387    0.06783    0.78623    1.000
    C109     C        0.23887    0.18843    0.80573    1.000
    H93      H        0.24547    0.12123    0.82983    1.000
    H94      H        0.26747    0.02653    0.77883    1.000
    C110     C        0.28547    0.14333    0.77693    1.000
    C111     C        0.26297    0.19763    0.78513    1.000
    C112     C        0.21797    0.24433    0.81553    1.000
    C113     C        0.30727    0.15673    0.75413    1.000
    H95      H        0.26347    0.24003    0.77723    1.000
    C114     C        0.37567    0.22733    0.74583    1.000
    C115     C        0.24977    0.09173    0.74153    1.000
    C116     C        0.43767    0.29733    0.75923    1.000
    C117     C        0.38747    0.23373    0.72463    1.000
    C118     C        0.26147    0.09823    0.72043    1.000
    H96      H        0.20407    0.04443    0.74723    1.000
    H97      H        0.44057    0.34923    0.75533    1.000
    H98      H        0.49197    0.30243    0.75793    1.000
    H99      H        0.41897    0.28483    0.77313    1.000
    C119     C        0.32977    0.16953    0.71203    1.000
    H100     H        0.43357    0.28073    0.71903    1.000
    C120     C        0.19967    0.02833    0.70693    1.000
    C121     C        0.32267    0.16633    0.68843    1.000
    H101     H        0.19987    0.97743    0.71023    1.000
    H102     H        0.21657    0.04313    0.69293    1.000
    H103     H        0.14467    0.02063    0.70893    1.000
    C122     C        0.28097    0.08943    0.67753    1.000
    C123     C        0.37697    0.24683    0.67793    1.000
    H104     H        0.24707    0.03963    0.68453    1.000
    C124     C        0.42057    0.32763    0.68983    1.000
    H105     H        0.39917    0.36373    0.68583    1.000
    H106     H        0.41047    0.31543    0.70413    1.000
    H107     H        0.48017    0.35543    0.68723    1.000
    C125     C        0.91647    0.74813    0.74183    1.000
    H108     H        0.96437    0.79263    0.74763    1.000
    C126     C        0.91157    0.73663    0.72073    1.000
    C127     C        0.77277    0.61463    0.72433    1.000
    H109     H        0.72487    0.57013    0.71853    1.000
    C128     C        0.77797    0.62603    0.74553    1.000
    C129     C        0.70527    0.56593    0.75853    1.000
    H110     H        0.72137    0.57623    0.77263    1.000
    H111     H        0.68977    0.50913    0.75513    1.000
    H112     H        0.65817    0.57433    0.75623    1.000
    C130     C        0.98357    0.79593    0.70753    1.000
    H113     H        0.96957    0.78053    0.69343    1.000
    H114     H        0.03297    0.79303    0.71093    1.000
    H115     H        0.99447    0.85243    0.70953    1.000
    Cu6      Cu       0.85849    0.14134    0.15036    1.000
    O21      O        0.74533    0.10357    0.13980    1.000
    O22      O        0.81473    0.03667    0.16626    1.000
    O23      O        0.89493    0.25457    0.13982    1.000
    O24      O        0.96403    0.18557    0.16629    1.000
    C131     C        0.88433    0.30797    0.14897    1.000
    C132     C        0.90393    0.38507    0.13937    1.000
    C133     C        0.90783    0.45277    0.14897    1.000
    C134     C        0.93053    0.40117    0.11957    1.000
    C135     C        0.90553    0.52177    0.13907    1.000
    H116     H        0.91213    0.45457    0.16317    1.000
    H117     H        0.93413    0.35987    0.11217    1.000
    C136     C        0.95213    0.47667    0.11027    1.000
    C137     C        0.92963    0.53097    0.11847    1.000
    C138     C        0.88463    0.57767    0.14887    1.000
    C139     C        0.97393    0.49007    0.08747    1.000
    H118     H        0.93013    0.57337    0.11057    1.000
    C140     C        0.04233    0.56067    0.07917    1.000
    C141     C        0.91643    0.42507    0.07487    1.000
    C142     C        0.10433    0.63067    0.09257    1.000
    C143     C        0.05413    0.56707    0.05797    1.000
    C144     C        0.92813    0.43157    0.05377    1.000
    H119     H        0.87073    0.37777    0.08057    1.000
    H120     H        0.10723    0.68257    0.08867    1.000
    H121     H        0.15863    0.63577    0.09127    1.000
    H122     H        0.08563    0.61817    0.10647    1.000
    C145     C        0.99643    0.50287    0.04537    1.000
    H123     H        0.10023    0.61407    0.05237    1.000
    C146     C        0.86633    0.36167    0.04027    1.000
    C147     C        0.98933    0.49967    0.02177    1.000
    H124     H        0.86653    0.31077    0.04357    1.000
    H125     H        0.88323    0.37647    0.02627    1.000
    H126     H        0.81133    0.35397    0.04227    1.000
    C148     C        0.94763    0.42277    0.01087    1.000
    C149     C        0.04363    0.58017    0.01127    1.000
    H127     H        0.91373    0.37297    0.01787    1.000
    C150     C        0.08723    0.66097    0.02317    1.000
    H128     H        0.06583    0.69707    0.01917    1.000
    H129     H        0.07713    0.64877    0.03747    1.000
    H130     H        0.14683    0.68877    0.02057    1.000
    C151     C        0.58313    0.08147    0.07517    1.000
    H131     H        0.63103    0.12597    0.08097    1.000
    C152     C        0.57823    0.06997    0.05407    1.000
    C153     C        0.43943    0.94797    0.05767    1.000
    H132     H        0.39153    0.90347    0.05187    1.000
    C154     C        0.44463    0.95937    0.07887    1.000
    C155     C        0.37193    0.89927    0.09187    1.000
    H133     H        0.38803    0.90957    0.10597    1.000
    H134     H        0.35643    0.84247    0.08847    1.000
    H135     H        0.32483    0.90767    0.08957    1.000
    C156     C        0.65023    0.12927    0.04087    1.000
    H136     H        0.63623    0.11387    0.02677    1.000
    H137     H        0.69963    0.12637    0.04427    1.000
    H138     H        0.66113    0.18577    0.04287    1.000
    Cu7      Cu       0.52533    0.05049    0.48369    1.000
    O25      O        0.56310    0.97510    0.47313    1.000
    O26      O        0.63000    0.11140    0.49959    1.000
    O27      O        0.41210    0.97370    0.47315    1.000
    O28      O        0.48110    0.11180    0.49962    1.000
    C157     C        0.35870    0.90970    0.48230    1.000
    C158     C        0.28160    0.85220    0.47270    1.000
    C159     C        0.21390    0.78840    0.48230    1.000
    C160     C        0.26550    0.86270    0.45290    1.000
    C161     C        0.14490    0.71710    0.47240    1.000
    H139     H        0.21210    0.79090    0.49650    1.000
    H140     H        0.30680    0.90760    0.44550    1.000
    C162     C        0.19000    0.80880    0.44360    1.000
    C163     C        0.13570    0.73200    0.45180    1.000
    C164     C        0.08900    0.64030    0.48220    1.000
    C165     C        0.17660    0.81720    0.42080    1.000
    H141     H        0.09330    0.69010    0.44390    1.000
    C166     C        0.10600    0.81500    0.41250    1.000
    C167     C        0.24160    0.82470    0.40820    1.000
    C168     C        0.03600    0.80700    0.42590    1.000
    C169     C        0.09960    0.82040    0.39130    1.000
    C170     C        0.23510    0.82990    0.38710    1.000
    H142     H        0.28890    0.82630    0.41390    1.000
    H143     H        0.98410    0.75800    0.42200    1.000
    H144     H        0.03090    0.85620    0.42460    1.000
    H145     H        0.04850    0.80080    0.43980    1.000
    C171     C        0.16380    0.82690    0.37870    1.000
    H146     H        0.05260    0.81950    0.38570    1.000
    C172     C        0.30500    0.83800    0.37360    1.000
    C173     C        0.16700    0.82300    0.35510    1.000
    H147     H        0.35590    0.88910    0.37690    1.000
    H148     H        0.29020    0.84010    0.35960    1.000
    H149     H        0.31270    0.79070    0.37560    1.000
    C174     C        0.24390    0.85820    0.34420    1.000
    C175     C        0.08650    0.79680    0.34460    1.000
    H150     H        0.29370    0.87410    0.35120    1.000
    C176     C        0.00570    0.75960    0.35650    1.000
    H151     H        0.96960    0.70210    0.35250    1.000
    H152     H        0.01790    0.76170    0.37080    1.000
    H153     H        0.97790    0.79140    0.35390    1.000
    C177     C        0.58520    0.83500    0.40850    1.000
    H154     H        0.54070    0.83840    0.41430    1.000
    C178     C        0.59670    0.84160    0.38740    1.000
    C179     C        0.71870    0.82480    0.39100    1.000
    H155     H        0.76320    0.82140    0.38520    1.000
    C180     C        0.70730    0.81860    0.41220    1.000
    C181     C        0.76740    0.80600    0.42520    1.000
    H156     H        0.75710    0.81180    0.43930    1.000
    H157     H        0.82420    0.84730    0.42180    1.000
    H158     H        0.75900    0.75050    0.42290    1.000
    C182     C        0.53740    0.85430    0.37420    1.000
    H159     H        0.55280    0.85570    0.36010    1.000
    H160     H        0.54030    0.90660    0.37760    1.000
    H161     H        0.48090    0.80870    0.37620    1.000
    Cu8      Cu       0.19200    0.38382    0.81702    1.000
    O29      O        0.22977    0.30843    0.80646    1.000
    O30      O        0.29667    0.44473    0.83292    1.000
    O31      O        0.07877    0.30703    0.80648    1.000
    O32      O        0.14777    0.44513    0.83295    1.000
    C183     C        0.02537    0.24303    0.81563    1.000
    C184     C        0.94827    0.18553    0.80603    1.000
    C185     C        0.88057    0.12173    0.81563    1.000
    C186     C        0.93217    0.19603    0.78623    1.000
    C187     C        0.81157    0.05043    0.80573    1.000
    H162     H        0.87877    0.12423    0.82983    1.000
    H163     H        0.97347    0.24093    0.77883    1.000
    C188     C        0.85667    0.14213    0.77693    1.000
    C189     C        0.80237    0.06533    0.78513    1.000
    C190     C        0.75567    0.97363    0.81553    1.000
    C191     C        0.84327    0.15053    0.75413    1.000
    H164     H        0.75997    0.02343    0.77723    1.000
    C192     C        0.77267    0.14833    0.74583    1.000
    C193     C        0.90827    0.15803    0.74153    1.000
    C194     C        0.70267    0.14033    0.75923    1.000
    C195     C        0.76627    0.15373    0.72463    1.000
    C196     C        0.90177    0.16323    0.72043    1.000
    H165     H        0.95557    0.15963    0.74723    1.000
    H166     H        0.65077    0.09133    0.75533    1.000
    H167     H        0.69757    0.18953    0.75793    1.000
    H168     H        0.71517    0.13413    0.77313    1.000
    C197     C        0.83047    0.16023    0.71203    1.000
    H169     H        0.71927    0.15283    0.71903    1.000
    C198     C        0.97167    0.17133    0.70693    1.000
    C199     C        0.83367    0.15633    0.68843    1.000
    H170     H        0.02257    0.22243    0.71023    1.000
    H171     H        0.95687    0.17343    0.69293    1.000
    H172     H        0.97937    0.12403    0.70893    1.000
    C200     C        0.91057    0.19153    0.67753    1.000
    C201     C        0.75317    0.13013    0.67793    1.000
    H173     H        0.96037    0.20743    0.68453    1.000
    C202     C        0.67237    0.09293    0.68983    1.000
    H174     H        0.63627    0.03543    0.68583    1.000
    H175     H        0.68457    0.09503    0.70413    1.000
    H176     H        0.64457    0.12473    0.68723    1.000
    C203     C        0.25187    0.16833    0.74183    1.000
    H177     H        0.20737    0.17173    0.74763    1.000
    C204     C        0.26337    0.17493    0.72073    1.000
    C205     C        0.38537    0.15813    0.72433    1.000
    H178     H        0.42987    0.15473    0.71853    1.000
    C206     C        0.37397    0.15193    0.74553    1.000
    C207     C        0.43407    0.13933    0.75853    1.000
    H179     H        0.42377    0.14513    0.77263    1.000
    H180     H        0.49087    0.18063    0.75513    1.000
    H181     H        0.42567    0.08383    0.75623    1.000
    C208     C        0.20407    0.18763    0.70753    1.000
    H182     H        0.21947    0.18903    0.69343    1.000
    H183     H        0.20697    0.23993    0.71093    1.000
    H184     H        0.14757    0.14203    0.70953    1.000
    Cu9      Cu       0.85866    0.71716    0.15036    1.000
    O33      O        0.89643    0.64177    0.13980    1.000
    O34      O        0.96333    0.77807    0.16626    1.000
    O35      O        0.74543    0.64037    0.13982    1.000
    O36      O        0.81443    0.77847    0.16629    1.000
    C209     C        0.69203    0.57637    0.14897    1.000
    C210     C        0.61493    0.51887    0.13937    1.000
    C211     C        0.54723    0.45507    0.14897    1.000
    C212     C        0.59883    0.52937    0.11957    1.000
    C213     C        0.47823    0.38377    0.13907    1.000
    H185     H        0.54543    0.45757    0.16317    1.000
    H186     H        0.64013    0.57427    0.11217    1.000
    C214     C        0.52333    0.47547    0.11027    1.000
    C215     C        0.46903    0.39867    0.11847    1.000
    C216     C        0.42233    0.30697    0.14887    1.000
    C217     C        0.50993    0.48387    0.08747    1.000
    H187     H        0.42663    0.35677    0.11057    1.000
    C218     C        0.43933    0.48167    0.07917    1.000
    C219     C        0.57493    0.49137    0.07487    1.000
    C220     C        0.36933    0.47367    0.09257    1.000
    C221     C        0.43293    0.48707    0.05797    1.000
    C222     C        0.56843    0.49657    0.05377    1.000
    H188     H        0.62223    0.49297    0.08057    1.000
    H189     H        0.31743    0.42467    0.08867    1.000
    H190     H        0.36423    0.52287    0.09127    1.000
    H191     H        0.38183    0.46747    0.10647    1.000
    C223     C        0.49713    0.49357    0.04537    1.000
    H192     H        0.38593    0.48617    0.05237    1.000
    C224     C        0.63833    0.50467    0.04027    1.000
    C225     C        0.50033    0.48967    0.02177    1.000
    H193     H        0.68923    0.55577    0.04357    1.000
    H194     H        0.62353    0.50677    0.02627    1.000
    H195     H        0.64603    0.45737    0.04227    1.000
    C226     C        0.57723    0.52487    0.01087    1.000
    C227     C        0.41983    0.46347    0.01127    1.000
    H196     H        0.62703    0.54077    0.01787    1.000
    C228     C        0.33903    0.42627    0.02317    1.000
    H197     H        0.30293    0.36877    0.01917    1.000
    H198     H        0.35123    0.42837    0.03747    1.000
    H199     H        0.31123    0.45807    0.02057    1.000
    C229     C        0.91853    0.50167    0.07517    1.000
    H200     H        0.87403    0.50507    0.08097    1.000
    C230     C        0.93003    0.50827    0.05407    1.000
    C231     C        0.05203    0.49147    0.05767    1.000
    H201     H        0.09653    0.48807    0.05187    1.000
    C232     C        0.04063    0.48527    0.07887    1.000
    C233     C        0.10073    0.47267    0.09187    1.000
    H202     H        0.09043    0.47847    0.10597    1.000
    H203     H        0.15753    0.51397    0.08847    1.000
    H204     H        0.09233    0.41717    0.08957    1.000
    C234     C        0.87073    0.52097    0.04087    1.000
    H205     H        0.88613    0.52237    0.02677    1.000
    H206     H        0.87363    0.57327    0.04427    1.000
    H207     H        0.81423    0.47537    0.04287    1.000
    Cu10     Cu       0.05049    0.52516    0.51631    1.000
    O37      O        0.97510    0.41200    0.52687    1.000
    O38      O        0.11140    0.48140    0.50041    1.000
    O39      O        0.97370    0.56160    0.52685    1.000
    O40      O        0.11180    0.63070    0.50038    1.000
    C235     C        0.90970    0.55100    0.51770    1.000
    C236     C        0.85220    0.57060    0.52730    1.000
    C237     C        0.78840    0.57450    0.51770    1.000
    C238     C        0.86270    0.59720    0.54710    1.000
    C239     C        0.71710    0.57220    0.52760    1.000
    H208     H        0.79090    0.57880    0.50350    1.000
    H209     H        0.90760    0.60080    0.55450    1.000
    C240     C        0.80880    0.61880    0.55640    1.000
    C241     C        0.73200    0.59630    0.54820    1.000
    C242     C        0.64030    0.55130    0.51780    1.000
    C243     C        0.81720    0.64060    0.57920    1.000
    H210     H        0.69010    0.59680    0.55610    1.000
    C244     C        0.81500    0.70900    0.58750    1.000
    C245     C        0.82470    0.58310    0.59180    1.000
    C246     C        0.80700    0.77100    0.57410    1.000
    C247     C        0.82040    0.72080    0.60870    1.000
    C248     C        0.82990    0.59480    0.61290    1.000
    H211     H        0.82630    0.53740    0.58610    1.000
    H212     H        0.75800    0.77390    0.57800    1.000
    H213     H        0.85620    0.82530    0.57540    1.000
    H214     H        0.80080    0.75230    0.56020    1.000
    C249     C        0.82690    0.66310    0.62130    1.000
    H215     H        0.81950    0.76690    0.61430    1.000
    C250     C        0.83800    0.53300    0.62640    1.000
    C251     C        0.82300    0.65600    0.64490    1.000
    H216     H        0.88910    0.53320    0.62310    1.000
    H217     H        0.84010    0.54990    0.64040    1.000
    H218     H        0.79070    0.47800    0.62440    1.000
    C252     C        0.85820    0.61430    0.65580    1.000
    C253     C        0.79680    0.71030    0.65540    1.000
    H219     H        0.87410    0.58040    0.64880    1.000
    C254     C        0.75960    0.75390    0.64350    1.000
    H220     H        0.70210    0.73250    0.64750    1.000
    H221     H        0.76170    0.74380    0.62920    1.000
    H222     H        0.79140    0.81350    0.64610    1.000
    C255     C        0.83500    0.24980    0.59150    1.000
    H223     H        0.83840    0.29770    0.58570    1.000
    C256     C        0.84160    0.24490    0.61260    1.000
    C257     C        0.82480    0.10610    0.60900    1.000
    H224     H        0.82140    0.05820    0.61480    1.000
    C258     C        0.81860    0.11130    0.58780    1.000
    C259     C        0.80600    0.03860    0.57480    1.000
    H225     H        0.81180    0.05470    0.56070    1.000
    H226     H        0.84730    0.02310    0.57820    1.000
    H227     H        0.75050    0.99150    0.57710    1.000
    C260     C        0.85430    0.31690    0.62580    1.000
    H228     H        0.85570    0.30290    0.63990    1.000
    H229     H        0.90660    0.36630    0.62240    1.000
    H230     H        0.80870    0.32780    0.62380    1.000
    Cu11     Cu       0.71716    0.85849    0.84964    1.000
    O41      O        0.64177    0.74533    0.86020    1.000
    O42      O        0.77807    0.81473    0.83374    1.000
    O43      O        0.64037    0.89493    0.86018    1.000
    O44      O        0.77847    0.96403    0.83371    1.000
    C261     C        0.57637    0.88433    0.85103    1.000
    C262     C        0.51887    0.90393    0.86063    1.000
    C263     C        0.45507    0.90783    0.85103    1.000
    C264     C        0.52937    0.93053    0.88043    1.000
    C265     C        0.38377    0.90553    0.86093    1.000
    H231     H        0.45757    0.91213    0.83683    1.000
    H232     H        0.57427    0.93413    0.88783    1.000
    C266     C        0.47547    0.95213    0.88973    1.000
    C267     C        0.39867    0.92963    0.88153    1.000
    C268     C        0.30697    0.88463    0.85113    1.000
    C269     C        0.48387    0.97393    0.91253    1.000
    H233     H        0.35677    0.93013    0.88943    1.000
    C270     C        0.48167    0.04233    0.92083    1.000
    C271     C        0.49137    0.91643    0.92513    1.000
    C272     C        0.47367    0.10433    0.90743    1.000
    C273     C        0.48707    0.05413    0.94203    1.000
    C274     C        0.49657    0.92813    0.94623    1.000
    H234     H        0.49297    0.87073    0.91943    1.000
    H235     H        0.42467    0.10723    0.91133    1.000
    H236     H        0.52287    0.15863    0.90873    1.000
    H237     H        0.46747    0.08563    0.89353    1.000
    C275     C        0.49357    0.99643    0.95463    1.000
    H238     H        0.48617    0.10023    0.94763    1.000
    C276     C        0.50467    0.86633    0.95973    1.000
    C277     C        0.48967    0.98933    0.97823    1.000
    H239     H        0.55577    0.86653    0.95643    1.000
    H240     H        0.50677    0.88323    0.97373    1.000
    H241     H        0.45737    0.81133    0.95773    1.000
    C278     C        0.52487    0.94763    0.98913    1.000
    C279     C        0.46347    0.04363    0.98873    1.000
    H242     H        0.54077    0.91373    0.98213    1.000
    C280     C        0.42627    0.08723    0.97683    1.000
    H243     H        0.36877    0.06583    0.98083    1.000
    H244     H        0.42837    0.07713    0.96253    1.000
    H245     H        0.45807    0.14683    0.97943    1.000
    C281     C        0.50167    0.58313    0.92483    1.000
    H246     H        0.50507    0.63103    0.91903    1.000
    C282     C        0.50827    0.57823    0.94593    1.000
    C283     C        0.49147    0.43943    0.94233    1.000
    H247     H        0.48807    0.39153    0.94813    1.000
    C284     C        0.48527    0.44463    0.92113    1.000
    C285     C        0.47267    0.37193    0.90813    1.000
    H248     H        0.47847    0.38803    0.89403    1.000
    H249     H        0.51397    0.35643    0.91153    1.000
    H250     H        0.41717    0.32483    0.91043    1.000
    C286     C        0.52097    0.65023    0.95913    1.000
    H251     H        0.52237    0.63623    0.97323    1.000
    H252     H        0.57327    0.69963    0.95573    1.000
    H253     H        0.47537    0.66113    0.95713    1.000
    Cu12     Cu       0.38382    0.19183    0.18298    1.000
    O45      O        0.30843    0.07867    0.19354    1.000
    O46      O        0.44473    0.14807    0.16708    1.000
    O47      O        0.30703    0.22827    0.19352    1.000
    O48      O        0.44513    0.29737    0.16705    1.000
    C287     C        0.24303    0.21767    0.18437    1.000
    C288     C        0.18553    0.23727    0.19397    1.000
    C289     C        0.12173    0.24117    0.18437    1.000
    C290     C        0.19603    0.26387    0.21377    1.000
    C291     C        0.05043    0.23887    0.19427    1.000
    H254     H        0.12423    0.24547    0.17017    1.000
    H255     H        0.24093    0.26747    0.22117    1.000
    C292     C        0.14213    0.28547    0.22307    1.000
    C293     C        0.06533    0.26297    0.21487    1.000
    C294     C        0.97363    0.21797    0.18447    1.000
    C295     C        0.15053    0.30727    0.24587    1.000
    H256     H        0.02343    0.26347    0.22277    1.000
    C296     C        0.14833    0.37567    0.25417    1.000
    C297     C        0.15803    0.24977    0.25847    1.000
    C298     C        0.14033    0.43767    0.24077    1.000
    C299     C        0.15373    0.38747    0.27537    1.000
    C300     C        0.16323    0.26147    0.27957    1.000
    H257     H        0.15963    0.20407    0.25277    1.000
    H258     H        0.09133    0.44057    0.24467    1.000
    H259     H        0.18953    0.49197    0.24207    1.000
    H260     H        0.13413    0.41897    0.22687    1.000
    C301     C        0.16023    0.32977    0.28797    1.000
    H261     H        0.15283    0.43357    0.28097    1.000
    C302     C        0.17133    0.19967    0.29307    1.000
    C303     C        0.15633    0.32267    0.31157    1.000
    H262     H        0.22243    0.19987    0.28977    1.000
    H263     H        0.17343    0.21657    0.30707    1.000
    H264     H        0.12403    0.14467    0.29107    1.000
    C304     C        0.19153    0.28097    0.32247    1.000
    C305     C        0.13013    0.37697    0.32207    1.000
    H265     H        0.20743    0.24707    0.31547    1.000
    C306     C        0.09293    0.42057    0.31017    1.000
    H266     H        0.03543    0.39917    0.31417    1.000
    H267     H        0.09503    0.41047    0.29587    1.000
    H268     H        0.12473    0.48017    0.31277    1.000
    C307     C        0.16833    0.91647    0.25817    1.000
    H269     H        0.17173    0.96437    0.25237    1.000
    C308     C        0.17493    0.91157    0.27927    1.000
    C309     C        0.15813    0.77277    0.27567    1.000
    H270     H        0.15473    0.72487    0.28147    1.000
    C310     C        0.15193    0.77797    0.25447    1.000
    C311     C        0.13933    0.70527    0.24147    1.000
    H271     H        0.14513    0.72137    0.22737    1.000
    H272     H        0.18063    0.68977    0.24487    1.000
    H273     H        0.08383    0.65817    0.24377    1.000
    C312     C        0.18763    0.98357    0.29247    1.000
    H274     H        0.18903    0.96957    0.30657    1.000
    H275     H        0.23993    0.03297    0.28907    1.000
    H276     H        0.14203    0.99447    0.29047    1.000
    Cu13     Cu       0.47484    0.52533    0.51631    1.000
    O49      O        0.58800    0.56310    0.52687    1.000
    O50      O        0.51860    0.63000    0.50041    1.000
    O51      O        0.43840    0.41210    0.52685    1.000
    O52      O        0.36930    0.48110    0.50038    1.000
    C313     C        0.44900    0.35870    0.51770    1.000
    C314     C        0.42940    0.28160    0.52730    1.000
    C315     C        0.42550    0.21390    0.51770    1.000
    C316     C        0.40280    0.26550    0.54710    1.000
    C317     C        0.42780    0.14490    0.52760    1.000
    H277     H        0.42120    0.21210    0.50350    1.000
    H278     H        0.39920    0.30680    0.55450    1.000
    C318     C        0.38120    0.19000    0.55640    1.000
    C319     C        0.40370    0.13570    0.54820    1.000
    C320     C        0.44870    0.08900    0.51780    1.000
    C321     C        0.35940    0.17660    0.57920    1.000
    H279     H        0.40320    0.09330    0.55610    1.000
    C322     C        0.29100    0.10600    0.58750    1.000
    C323     C        0.41690    0.24160    0.59180    1.000
    C324     C        0.22900    0.03600    0.57410    1.000
    C325     C        0.27920    0.09960    0.60870    1.000
    C326     C        0.40520    0.23510    0.61290    1.000
    H280     H        0.46260    0.28890    0.58610    1.000
    H281     H        0.22610    0.98410    0.57800    1.000
    H282     H        0.17470    0.03090    0.57540    1.000
    H283     H        0.24770    0.04850    0.56020    1.000
    C327     C        0.33690    0.16380    0.62130    1.000
    H284     H        0.23310    0.05260    0.61430    1.000
    C328     C        0.46700    0.30500    0.62640    1.000
    C329     C        0.34400    0.16700    0.64490    1.000
    H285     H        0.46680    0.35590    0.62310    1.000
    H286     H        0.45010    0.29020    0.64040    1.000
    H287     H        0.52200    0.31270    0.62440    1.000
    C330     C        0.38570    0.24390    0.65580    1.000
    C331     C        0.28970    0.08650    0.65540    1.000
    H288     H        0.41960    0.29370    0.64880    1.000
    C332     C        0.24610    0.00570    0.64350    1.000
    H289     H        0.26750    0.96960    0.64750    1.000
    H290     H        0.25620    0.01790    0.62920    1.000
    H291     H        0.18650    0.97790    0.64610    1.000
    C333     C        0.75020    0.58520    0.59150    1.000
    H292     H        0.70230    0.54070    0.58570    1.000
    C334     C        0.75510    0.59670    0.61260    1.000
    C335     C        0.89390    0.71870    0.60900    1.000
    H293     H        0.94180    0.76320    0.61480    1.000
    C336     C        0.88870    0.70730    0.58780    1.000
    C337     C        0.96140    0.76740    0.57480    1.000
    H294     H        0.94530    0.75710    0.56070    1.000
    H295     H        0.97690    0.82420    0.57820    1.000
    H296     H        0.00850    0.75900    0.57710    1.000
    C338     C        0.68310    0.53740    0.62580    1.000
    H297     H        0.69710    0.55280    0.63990    1.000
    H298     H        0.63370    0.54030    0.62240    1.000
    H299     H        0.67220    0.48090    0.62380    1.000
    Cu14     Cu       0.14151    0.85866    0.84964    1.000
    O53      O        0.25467    0.89643    0.86020    1.000
    O54      O        0.18527    0.96333    0.83374    1.000
    O55      O        0.10507    0.74543    0.86018    1.000
    O56      O        0.03597    0.81443    0.83371    1.000
    C339     C        0.11567    0.69203    0.85103    1.000
    C340     C        0.09607    0.61493    0.86063    1.000
    C341     C        0.09217    0.54723    0.85103    1.000
    C342     C        0.06947    0.59883    0.88043    1.000
    C343     C        0.09447    0.47823    0.86093    1.000
    H300     H        0.08787    0.54543    0.83683    1.000
    H301     H        0.06587    0.64013    0.88783    1.000
    C344     C        0.04787    0.52333    0.88973    1.000
    C345     C        0.07037    0.46903    0.88153    1.000
    C346     C        0.11537    0.42233    0.85113    1.000
    C347     C        0.02607    0.50993    0.91253    1.000
    H302     H        0.06987    0.42663    0.88943    1.000
    C348     C        0.95767    0.43933    0.92083    1.000
    C349     C        0.08357    0.57493    0.92513    1.000
    C350     C        0.89567    0.36933    0.90743    1.000
    C351     C        0.94587    0.43293    0.94203    1.000
    C352     C        0.07187    0.56843    0.94623    1.000
    H303     H        0.12927    0.62223    0.91943    1.000
    H304     H        0.89277    0.31743    0.91133    1.000
    H305     H        0.84137    0.36423    0.90873    1.000
    H306     H        0.91437    0.38183    0.89353    1.000
    C353     C        0.00357    0.49713    0.95463    1.000
    H307     H        0.89977    0.38593    0.94763    1.000
    C354     C        0.13367    0.63833    0.95973    1.000
    C355     C        0.01067    0.50033    0.97823    1.000
    H308     H        0.13347    0.68923    0.95643    1.000
    H309     H        0.11677    0.62353    0.97373    1.000
    H310     H        0.18867    0.64603    0.95773    1.000
    C356     C        0.05237    0.57723    0.98913    1.000
    C357     C        0.95637    0.41983    0.98873    1.000
    H311     H        0.08627    0.62703    0.98213    1.000
    C358     C        0.91277    0.33903    0.97683    1.000
    H312     H        0.93417    0.30293    0.98083    1.000
    H313     H        0.92287    0.35123    0.96253    1.000
    H314     H        0.85317    0.31123    0.97943    1.000
    C359     C        0.41687    0.91853    0.92483    1.000
    H315     H        0.36897    0.87403    0.91903    1.000
    C360     C        0.42177    0.93003    0.94593    1.000
    C361     C        0.56057    0.05203    0.94233    1.000
    H316     H        0.60847    0.09653    0.94813    1.000
    C362     C        0.55537    0.04063    0.92113    1.000
    C363     C        0.62807    0.10073    0.90813    1.000
    H317     H        0.61197    0.09043    0.89403    1.000
    H318     H        0.64357    0.15753    0.91153    1.000
    H319     H        0.67517    0.09233    0.91043    1.000
    C364     C        0.34977    0.87073    0.95913    1.000
    H320     H        0.36377    0.88613    0.97323    1.000
    H321     H        0.30037    0.87363    0.95573    1.000
    H322     H        0.33887    0.81423    0.95713    1.000
    Cu15     Cu       0.80817    0.19200    0.18298    1.000
    O57      O        0.92133    0.22977    0.19354    1.000
    O58      O        0.85193    0.29667    0.16708    1.000
    O59      O        0.77173    0.07877    0.19352    1.000
    O60      O        0.70263    0.14777    0.16705    1.000
    C365     C        0.78233    0.02537    0.18437    1.000
    C366     C        0.76273    0.94827    0.19397    1.000
    C367     C        0.75883    0.88057    0.18437    1.000
    C368     C        0.73613    0.93217    0.21377    1.000
    C369     C        0.76113    0.81157    0.19427    1.000
    H323     H        0.75453    0.87877    0.17017    1.000
    H324     H        0.73253    0.97347    0.22117    1.000
    C370     C        0.71453    0.85667    0.22307    1.000
    C371     C        0.73703    0.80237    0.21487    1.000
    C372     C        0.78203    0.75567    0.18447    1.000
    C373     C        0.69273    0.84327    0.24587    1.000
    H325     H        0.73653    0.75997    0.22277    1.000
    C374     C        0.62433    0.77267    0.25417    1.000
    C375     C        0.75023    0.90827    0.25847    1.000
    C376     C        0.56233    0.70267    0.24077    1.000
    C377     C        0.61253    0.76627    0.27537    1.000
    C378     C        0.73853    0.90177    0.27957    1.000
    H326     H        0.79593    0.95557    0.25277    1.000
    H327     H        0.55943    0.65077    0.24467    1.000
    H328     H        0.50803    0.69757    0.24207    1.000
    H329     H        0.58103    0.71517    0.22687    1.000
    C379     C        0.67023    0.83047    0.28797    1.000
    H330     H        0.56643    0.71927    0.28097    1.000
    C380     C        0.80033    0.97167    0.29307    1.000
    C381     C        0.67733    0.83367    0.31157    1.000
    H331     H        0.80013    0.02257    0.28977    1.000
    H332     H        0.78343    0.95687    0.30707    1.000
    H333     H        0.85533    0.97937    0.29107    1.000
    C382     C        0.71903    0.91057    0.32247    1.000
    C383     C        0.62303    0.75317    0.32207    1.000
    H334     H        0.75293    0.96037    0.31547    1.000
    C384     C        0.57943    0.67237    0.31017    1.000
    H335     H        0.60083    0.63627    0.31417    1.000
    H336     H        0.58953    0.68457    0.29587    1.000
    H337     H        0.51983    0.64457    0.31277    1.000
    C385     C        0.08353    0.25187    0.25817    1.000
    H338     H        0.03563    0.20737    0.25237    1.000
    C386     C        0.08843    0.26337    0.27927    1.000
    C387     C        0.22723    0.38537    0.27567    1.000
    H339     H        0.27513    0.42987    0.28147    1.000
    C388     C        0.22203    0.37397    0.25447    1.000
    C389     C        0.29473    0.43407    0.24147    1.000
    H340     H        0.27863    0.42377    0.22737    1.000
    H341     H        0.31023    0.49087    0.24487    1.000
    H342     H        0.34183    0.42567    0.24377    1.000
    C390     C        0.01643    0.20407    0.29247    1.000
    H343     H        0.03043    0.21947    0.30657    1.000
    H344     H        0.96703    0.20697    0.28907    1.000
    H345     H        0.00553    0.14757    0.29047    1.000
    Cu16     Cu       0.47467    0.94951    0.51631    1.000
    O61      O        0.43690    0.02490    0.52687    1.000
    O62      O        0.37000    0.88860    0.50041    1.000
    O63      O        0.58790    0.02630    0.52685    1.000
    O64      O        0.51890    0.88820    0.50038    1.000
    C391     C        0.64130    0.09030    0.51770    1.000
    C392     C        0.71840    0.14780    0.52730    1.000
    C393     C        0.78610    0.21160    0.51770    1.000
    C394     C        0.73450    0.13730    0.54710    1.000
    C395     C        0.85510    0.28290    0.52760    1.000
    H346     H        0.78790    0.20910    0.50350    1.000
    H347     H        0.69320    0.09240    0.55450    1.000
    C396     C        0.81000    0.19120    0.55640    1.000
    C397     C        0.86430    0.26800    0.54820    1.000
    C398     C        0.91100    0.35970    0.51780    1.000
    C399     C        0.82340    0.18280    0.57920    1.000
    H348     H        0.90670    0.30990    0.55610    1.000
    C400     C        0.89400    0.18500    0.58750    1.000
    C401     C        0.75840    0.17530    0.59180    1.000
    C402     C        0.96400    0.19300    0.57410    1.000
    C403     C        0.90040    0.17960    0.60870    1.000
    C404     C        0.76490    0.17010    0.61290    1.000
    H349     H        0.71110    0.17370    0.58610    1.000
    H350     H        0.01590    0.24200    0.57800    1.000
    H351     H        0.96910    0.14380    0.57540    1.000
    H352     H        0.95150    0.19920    0.56020    1.000
    C405     C        0.83620    0.17310    0.62130    1.000
    H353     H        0.94740    0.18050    0.61430    1.000
    C406     C        0.69500    0.16200    0.62640    1.000
    C407     C        0.83300    0.17700    0.64490    1.000
    H354     H        0.64410    0.11090    0.62310    1.000
    H355     H        0.70980    0.15990    0.64040    1.000
    H356     H        0.68730    0.20930    0.62440    1.000
    C408     C        0.75610    0.14180    0.65580    1.000
    C409     C        0.91350    0.20320    0.65540    1.000
    H357     H        0.70630    0.12590    0.64880    1.000
    C410     C        0.99430    0.24040    0.64350    1.000
    H358     H        0.03040    0.29790    0.64750    1.000
    H359     H        0.98210    0.23830    0.62920    1.000
    H360     H        0.02210    0.20860    0.64610    1.000
    C411     C        0.41480    0.16500    0.59150    1.000
    H361     H        0.45930    0.16160    0.58570    1.000
    C412     C        0.40330    0.15840    0.61260    1.000
    C413     C        0.28130    0.17520    0.60900    1.000
    H362     H        0.23680    0.17860    0.61480    1.000
    C414     C        0.29270    0.18140    0.58780    1.000
    C415     C        0.23260    0.19400    0.57480    1.000
    H363     H        0.24290    0.18820    0.56070    1.000
    H364     H        0.17580    0.15270    0.57820    1.000
    H365     H        0.24100    0.24950    0.57710    1.000
    C416     C        0.46260    0.14570    0.62580    1.000
    H366     H        0.44720    0.14430    0.63990    1.000
    H367     H        0.45970    0.09340    0.62240    1.000
    H368     H        0.51910    0.19130    0.62380    1.000
    Cu17     Cu       0.14134    0.28284    0.84964    1.000
    O65      O        0.10357    0.35823    0.86020    1.000
    O66      O        0.03667    0.22193    0.83374    1.000
    O67      O        0.25457    0.35963    0.86018    1.000
    O68      O        0.18557    0.22153    0.83371    1.000
    C417     C        0.30797    0.42363    0.85103    1.000
    C418     C        0.38507    0.48113    0.86063    1.000
    C419     C        0.45277    0.54493    0.85103    1.000
    C420     C        0.40117    0.47063    0.88043    1.000
    C421     C        0.52177    0.61623    0.86093    1.000
    H369     H        0.45457    0.54243    0.83683    1.000
    H370     H        0.35987    0.42573    0.88783    1.000
    C422     C        0.47667    0.52453    0.88973    1.000
    C423     C        0.53097    0.60133    0.88153    1.000
    C424     C        0.57767    0.69303    0.85113    1.000
    C425     C        0.49007    0.51613    0.91253    1.000
    H371     H        0.57337    0.64323    0.88943    1.000
    C426     C        0.56067    0.51833    0.92083    1.000
    C427     C        0.42507    0.50863    0.92513    1.000
    C428     C        0.63067    0.52633    0.90743    1.000
    C429     C        0.56707    0.51293    0.94203    1.000
    C430     C        0.43157    0.50343    0.94623    1.000
    H372     H        0.37777    0.50703    0.91943    1.000
    H373     H        0.68257    0.57533    0.91133    1.000
    H374     H        0.63577    0.47713    0.90873    1.000
    H375     H        0.61817    0.53253    0.89353    1.000
    C431     C        0.50287    0.50643    0.95463    1.000
    H376     H        0.61407    0.51383    0.94763    1.000
    C432     C        0.36167    0.49533    0.95973    1.000
    C433     C        0.49967    0.51033    0.97823    1.000
    H377     H        0.31077    0.44423    0.95643    1.000
    H378     H        0.37647    0.49323    0.97373    1.000
    H379     H        0.35397    0.54263    0.95773    1.000
    C434     C        0.42277    0.47513    0.98913    1.000
    C435     C        0.58017    0.53653    0.98873    1.000
    H380     H        0.37297    0.45923    0.98213    1.000
    C436     C        0.66097    0.57373    0.97683    1.000
    H381     H        0.69707    0.63123    0.98083    1.000
    H382     H        0.64877    0.57163    0.96253    1.000
    H383     H        0.68877    0.54193    0.97943    1.000
    C437     C        0.08147    0.49833    0.92483    1.000
    H384     H        0.12597    0.49493    0.91903    1.000
    C438     C        0.06997    0.49173    0.94593    1.000
    C439     C        0.94797    0.50853    0.94233    1.000
    H385     H        0.90347    0.51193    0.94813    1.000
    C440     C        0.95937    0.51473    0.92113    1.000
    C441     C        0.89927    0.52733    0.90813    1.000
    H386     H        0.90957    0.52153    0.89403    1.000
    H387     H        0.84247    0.48603    0.91153    1.000
    H388     H        0.90767    0.58283    0.91043    1.000
    C442     C        0.12927    0.47903    0.95913    1.000
    H389     H        0.11387    0.47763    0.97323    1.000
    H390     H        0.12637    0.42673    0.95573    1.000
    H391     H        0.18577    0.52463    0.95713    1.000
    Cu18     Cu       0.80800    0.61618    0.18298    1.000
    O69      O        0.77023    0.69157    0.19354    1.000
    O70      O        0.70333    0.55527    0.16708    1.000
    O71      O        0.92123    0.69297    0.19352    1.000
    O72      O        0.85223    0.55487    0.16705    1.000
    C443     C        0.97463    0.75697    0.18437    1.000
    C444     C        0.05173    0.81447    0.19397    1.000
    C445     C        0.11943    0.87827    0.18437    1.000
    C446     C        0.06783    0.80397    0.21377    1.000
    C447     C        0.18843    0.94957    0.19427    1.000
    H392     H        0.12123    0.87577    0.17017    1.000
    H393     H        0.02653    0.75907    0.22117    1.000
    C448     C        0.14333    0.85787    0.22307    1.000
    C449     C        0.19763    0.93467    0.21487    1.000
    C450     C        0.24433    0.02637    0.18447    1.000
    C451     C        0.15673    0.84947    0.24587    1.000
    H394     H        0.24003    0.97657    0.22277    1.000
    C452     C        0.22733    0.85167    0.25417    1.000
    C453     C        0.09173    0.84197    0.25847    1.000
    C454     C        0.29733    0.85967    0.24077    1.000
    C455     C        0.23373    0.84627    0.27537    1.000
    C456     C        0.09823    0.83677    0.27957    1.000
    H395     H        0.04443    0.84037    0.25277    1.000
    H396     H        0.34923    0.90867    0.24467    1.000
    H397     H        0.30243    0.81047    0.24207    1.000
    H398     H        0.28483    0.86587    0.22687    1.000
    C457     C        0.16953    0.83977    0.28797    1.000
    H399     H        0.28073    0.84717    0.28097    1.000
    C458     C        0.02833    0.82867    0.29307    1.000
    C459     C        0.16633    0.84367    0.31157    1.000
    H400     H        0.97743    0.77757    0.28977    1.000
    H401     H        0.04313    0.82657    0.30707    1.000
    H402     H        0.02063    0.87597    0.29107    1.000
    C460     C        0.08943    0.80847    0.32247    1.000
    C461     C        0.24683    0.86987    0.32207    1.000
    H403     H        0.03963    0.79257    0.31547    1.000
    C462     C        0.32763    0.90707    0.31017    1.000
    H404     H        0.36373    0.96457    0.31417    1.000
    H405     H        0.31543    0.90497    0.29587    1.000
    H406     H        0.35543    0.87527    0.31277    1.000
    C463     C        0.74813    0.83167    0.25817    1.000
    H407     H        0.79263    0.82827    0.25237    1.000
    C464     C        0.73663    0.82507    0.27927    1.000
    C465     C        0.61463    0.84187    0.27567    1.000
    H408     H        0.57013    0.84527    0.28147    1.000
    C466     C        0.62603    0.84807    0.25447    1.000
    C467     C        0.56593    0.86067    0.24147    1.000
    H409     H        0.57623    0.85487    0.22737    1.000
    H410     H        0.50913    0.81937    0.24487    1.000
    H411     H        0.57433    0.91617    0.24377    1.000
    C468     C        0.79593    0.81237    0.29247    1.000
    H412     H        0.78053    0.81097    0.30657    1.000
    H413     H        0.79303    0.76007    0.28907    1.000
    H414     H        0.85243    0.85797    0.29047    1.000
