# CIF file generated by openbabel 3.1.0, see https://openbabel.org
data_I
_chemical_name_common 'ZILBIH_clean'
_cell_length_a 12.7035
_cell_length_b 22.6591
_cell_length_c 22.6591
_cell_angle_alpha 90
_cell_angle_beta 90
_cell_angle_gamma 90
_space_group_name_H-M_alt 'P 1'
_space_group_name_Hall 'P 1'
loop_
    _symmetry_equiv_pos_as_xyz
    x,y,z
loop_
    _atom_site_label
    _atom_site_type_symbol
    _atom_site_fract_x
    _atom_site_fract_y
    _atom_site_fract_z
    _atom_site_occupancy
    Co1      Co       0.75288    0.74312    0.73755    1.000
    Co2      Co       0.75288    0.25688    0.26245    1.000
    Co3      Co       0.24712    0.75688    0.23755    1.000
    Co4      Co       0.24712    0.24312    0.76245    1.000
    H1       H        0.47540    0.86490    0.77410    1.000
    H2       H        0.55160    0.11070    0.72200    1.000
    H3       H        0.93890    0.77580    0.37450    1.000
    H4       H        0.37880    0.95240    0.77290    1.000
    H5       H        0.10980    0.69540    0.52520    1.000
    H6       H        0.26170    0.68560    0.35080    1.000
    H7       H        0.45950    0.19840    0.73320    1.000
    H8       H        0.69800    0.94160    0.67190    1.000
    H9       H        0.03880    0.79020    0.29090    1.000
    H10      H        0.19000    0.11340    0.73840    1.000
    H11      H        0.27390    0.02370    0.72900    1.000
    H12      H        0.60030    0.02850    0.67050    1.000
    H13      H        0.74700    0.72460    0.52750    1.000
    H14      H        0.83670    0.72750    0.43810    1.000
    H15      H        0.02070    0.69380    0.61380    1.000
    H16      H        0.16680    0.66660    0.43540    1.000
    H17      H        0.47540    0.13510    0.22590    1.000
    H18      H        0.55160    0.88930    0.27800    1.000
    H19      H        0.93890    0.22420    0.62550    1.000
    H20      H        0.37880    0.04760    0.22710    1.000
    H21      H        0.10980    0.30460    0.47480    1.000
    H22      H        0.26170    0.31440    0.64920    1.000
    H23      H        0.45950    0.80160    0.26680    1.000
    H24      H        0.69800    0.05840    0.32810    1.000
    H25      H        0.03880    0.20980    0.70910    1.000
    H26      H        0.19000    0.88660    0.26160    1.000
    H27      H        0.27390    0.97630    0.27100    1.000
    H28      H        0.60030    0.97150    0.32950    1.000
    H29      H        0.74700    0.27540    0.47250    1.000
    H30      H        0.83670    0.27250    0.56190    1.000
    H31      H        0.02070    0.30620    0.38620    1.000
    H32      H        0.16680    0.33340    0.56460    1.000
    H33      H        0.52460    0.63510    0.27410    1.000
    H34      H        0.44840    0.38930    0.22200    1.000
    H35      H        0.06110    0.72420    0.87450    1.000
    H36      H        0.62120    0.54760    0.27290    1.000
    H37      H        0.89020    0.80460    0.02520    1.000
    H38      H        0.73830    0.81440    0.85080    1.000
    H39      H        0.54050    0.30160    0.23320    1.000
    H40      H        0.30200    0.55840    0.17190    1.000
    H41      H        0.96120    0.70980    0.79090    1.000
    H42      H        0.81000    0.38660    0.23840    1.000
    H43      H        0.72610    0.47630    0.22900    1.000
    H44      H        0.39970    0.47150    0.17050    1.000
    H45      H        0.25300    0.77540    0.02750    1.000
    H46      H        0.16330    0.77250    0.93810    1.000
    H47      H        0.97930    0.80620    0.11380    1.000
    H48      H        0.83320    0.83340    0.93540    1.000
    H49      H        0.52460    0.36490    0.72590    1.000
    H50      H        0.44840    0.61070    0.77800    1.000
    H51      H        0.06110    0.27580    0.12550    1.000
    H52      H        0.62120    0.45240    0.72710    1.000
    H53      H        0.89020    0.19540    0.97480    1.000
    H54      H        0.73830    0.18560    0.14920    1.000
    H55      H        0.54050    0.69840    0.76680    1.000
    H56      H        0.30200    0.44160    0.82810    1.000
    H57      H        0.96120    0.29020    0.20910    1.000
    H58      H        0.81000    0.61340    0.76160    1.000
    H59      H        0.72610    0.52370    0.77100    1.000
    H60      H        0.39970    0.52850    0.82950    1.000
    H61      H        0.25300    0.22460    0.97250    1.000
    H62      H        0.16330    0.22750    0.06190    1.000
    H63      H        0.97930    0.19380    0.88620    1.000
    H64      H        0.83320    0.16660    0.06460    1.000
    C1       C        0.66290    0.84020    0.72810    1.000
    C2       C        0.59760    0.89560    0.72380    1.000
    C3       C        0.87540    0.71110    0.58000    1.000
    C4       C        0.48180    0.99980    0.72320    1.000
    C5       C        0.50140    0.89840    0.75360    1.000
    C6       C        0.82070    0.71610    0.63760    1.000
    C7       C        0.98380    0.71380    0.47210    1.000
    C8       C        0.04290    0.72120    0.41570    1.000
    C9       C        0.42380    0.05680    0.72590    1.000
    C10      C        0.47720    0.11000    0.72630    1.000
    C11      C        0.00550    0.75710    0.37090    1.000
    C12      C        0.44440    0.95040    0.75290    1.000
    C13      C        0.03610    0.70240    0.52560    1.000
    C14      C        0.19520    0.70410    0.35570    1.000
    C15      C        0.42150    0.16230    0.73300    1.000
    C16      C        0.63340    0.94380    0.69290    1.000
    C17      C        0.06540    0.76520    0.32110    1.000
    C18      C        0.26460    0.11270    0.73620    1.000
    C19      C        0.31410    0.05900    0.73020    1.000
    C20      C        0.57550    0.99550    0.69230    1.000
    C21      C        0.82130    0.71970    0.52700    1.000
    C22      C        0.87450    0.72130    0.47380    1.000
    C23      C        0.98330    0.70130    0.57820    1.000
    C24      C        0.13970    0.69310    0.40660    1.000
    C25      C        0.66290    0.15980    0.27190    1.000
    C26      C        0.59760    0.10440    0.27620    1.000
    C27      C        0.87540    0.28890    0.42000    1.000
    C28      C        0.48180    0.00020    0.27680    1.000
    C29      C        0.50140    0.10160    0.24640    1.000
    C30      C        0.82070    0.28390    0.36240    1.000
    C31      C        0.98380    0.28620    0.52790    1.000
    C32      C        0.04290    0.27880    0.58430    1.000
    C33      C        0.42380    0.94320    0.27410    1.000
    C34      C        0.47720    0.89000    0.27370    1.000
    C35      C        0.00550    0.24290    0.62910    1.000
    C36      C        0.44440    0.04960    0.24710    1.000
    C37      C        0.03610    0.29760    0.47440    1.000
    C38      C        0.19520    0.29590    0.64430    1.000
    C39      C        0.42150    0.83770    0.26700    1.000
    C40      C        0.63340    0.05620    0.30710    1.000
    C41      C        0.06540    0.23480    0.67890    1.000
    C42      C        0.26460    0.88730    0.26380    1.000
    C43      C        0.31410    0.94100    0.26980    1.000
    C44      C        0.57550    0.00450    0.30770    1.000
    C45      C        0.82130    0.28030    0.47300    1.000
    C46      C        0.87450    0.27870    0.52620    1.000
    C47      C        0.98330    0.29870    0.42180    1.000
    C48      C        0.13970    0.30690    0.59340    1.000
    C49      C        0.33710    0.65980    0.22810    1.000
    C50      C        0.40240    0.60440    0.22380    1.000
    C51      C        0.12460    0.78890    0.08000    1.000
    C52      C        0.51820    0.50020    0.22320    1.000
    C53      C        0.49860    0.60160    0.25360    1.000
    C54      C        0.17930    0.78390    0.13760    1.000
    C55      C        0.01620    0.78620    0.97210    1.000
    C56      C        0.95710    0.77880    0.91570    1.000
    C57      C        0.57620    0.44320    0.22590    1.000
    C58      C        0.52280    0.39000    0.22630    1.000
    C59      C        0.99450    0.74290    0.87090    1.000
    C60      C        0.55560    0.54960    0.25290    1.000
    C61      C        0.96390    0.79760    0.02560    1.000
    C62      C        0.80480    0.79590    0.85570    1.000
    C63      C        0.57850    0.33770    0.23300    1.000
    C64      C        0.36660    0.55620    0.19290    1.000
    C65      C        0.93460    0.73480    0.82110    1.000
    C66      C        0.73540    0.38730    0.23620    1.000
    C67      C        0.68590    0.44100    0.23020    1.000
    C68      C        0.42450    0.50450    0.19230    1.000
    C69      C        0.17870    0.78030    0.02700    1.000
    C70      C        0.12550    0.77870    0.97380    1.000
    C71      C        0.01670    0.79870    0.07820    1.000
    C72      C        0.86030    0.80690    0.90660    1.000
    C73      C        0.33710    0.34020    0.77190    1.000
    C74      C        0.40240    0.39560    0.77620    1.000
    C75      C        0.12460    0.21110    0.92000    1.000
    C76      C        0.51820    0.49980    0.77680    1.000
    C77      C        0.49860    0.39840    0.74640    1.000
    C78      C        0.17930    0.21610    0.86240    1.000
    C79      C        0.01620    0.21380    0.02790    1.000
    C80      C        0.95710    0.22120    0.08430    1.000
    C81      C        0.57620    0.55680    0.77410    1.000
    C82      C        0.52280    0.61000    0.77370    1.000
    C83      C        0.99450    0.25710    0.12910    1.000
    C84      C        0.55560    0.45040    0.74710    1.000
    C85      C        0.96390    0.20240    0.97440    1.000
    C86      C        0.80480    0.20410    0.14430    1.000
    C87      C        0.57850    0.66230    0.76700    1.000
    C88      C        0.36660    0.44380    0.80710    1.000
    C89      C        0.93460    0.26520    0.17890    1.000
    C90      C        0.73540    0.61270    0.76380    1.000
    C91      C        0.68590    0.55900    0.76980    1.000
    C92      C        0.42450    0.49550    0.80770    1.000
    C93      C        0.17870    0.21970    0.97300    1.000
    C94      C        0.12550    0.22130    0.02620    1.000
    C95      C        0.01670    0.20130    0.92180    1.000
    C96      C        0.86030    0.19310    0.09340    1.000
    N1       N        0.31680    0.16428    0.73915    1.000
    N2       N        0.16040    0.73956    0.31293    1.000
    N3       N        0.31680    0.83572    0.26085    1.000
    N4       N        0.16040    0.26044    0.68707    1.000
    N5       N        0.68320    0.33572    0.23915    1.000
    N6       N        0.83960    0.76044    0.81293    1.000
    N7       N        0.68320    0.66428    0.76085    1.000
    N8       N        0.83960    0.23956    0.18707    1.000
    O1       O        0.87400    0.71679    0.68447    1.000
    O2       O        0.62290    0.79475    0.75263    1.000
    O3       O        0.75460    0.83922    0.70802    1.000
    O4       O        0.72110    0.72263    0.63970    1.000
    O5       O        0.87400    0.28321    0.31553    1.000
    O6       O        0.62290    0.20525    0.24737    1.000
    O7       O        0.75460    0.16078    0.29198    1.000
    O8       O        0.72110    0.27737    0.36030    1.000
    O9       O        0.12600    0.78321    0.18447    1.000
    O10      O        0.37710    0.70525    0.25263    1.000
    O11      O        0.24540    0.66078    0.20802    1.000
    O12      O        0.27890    0.77737    0.13970    1.000
    O13      O        0.12600    0.21679    0.81553    1.000
    O14      O        0.37710    0.29475    0.74737    1.000
    O15      O        0.24540    0.33922    0.79198    1.000
    O16      O        0.27890    0.22263    0.86030    1.000
    Co5      Co       0.75288    0.76245    0.24312    1.000
    Co6      Co       0.75288    0.23755    0.75688    1.000
    Co7      Co       0.24712    0.73755    0.74312    1.000
    Co8      Co       0.24712    0.26245    0.25688    1.000
    H65      H        0.47540    0.72590    0.36490    1.000
    H66      H        0.55160    0.77800    0.61070    1.000
    H67      H        0.93890    0.12550    0.27580    1.000
    H68      H        0.37880    0.72710    0.45240    1.000
    H69      H        0.10980    0.97480    0.19540    1.000
    H70      H        0.26170    0.14920    0.18560    1.000
    H71      H        0.45950    0.76680    0.69840    1.000
    H72      H        0.69800    0.82810    0.44160    1.000
    H73      H        0.03880    0.20910    0.29020    1.000
    H74      H        0.19000    0.76160    0.61340    1.000
    H75      H        0.27390    0.77100    0.52370    1.000
    H76      H        0.60030    0.82950    0.52850    1.000
    H77      H        0.74700    0.97250    0.22460    1.000
    H78      H        0.83670    0.06190    0.22750    1.000
    H79      H        0.02070    0.88620    0.19380    1.000
    H80      H        0.16680    0.06460    0.16660    1.000
    H81      H        0.47540    0.27410    0.63510    1.000
    H82      H        0.55160    0.22200    0.38930    1.000
    H83      H        0.93890    0.87450    0.72420    1.000
    H84      H        0.37880    0.27290    0.54760    1.000
    H85      H        0.10980    0.02520    0.80460    1.000
    H86      H        0.26170    0.85080    0.81440    1.000
    H87      H        0.45950    0.23320    0.30160    1.000
    H88      H        0.69800    0.17190    0.55840    1.000
    H89      H        0.03880    0.79090    0.70980    1.000
    H90      H        0.19000    0.23840    0.38660    1.000
    H91      H        0.27390    0.22900    0.47630    1.000
    H92      H        0.60030    0.17050    0.47150    1.000
    H93      H        0.74700    0.02750    0.77540    1.000
    H94      H        0.83670    0.93810    0.77250    1.000
    H95      H        0.02070    0.11380    0.80620    1.000
    H96      H        0.16680    0.93540    0.83340    1.000
    H97      H        0.52460    0.77410    0.86490    1.000
    H98      H        0.44840    0.72200    0.11070    1.000
    H99      H        0.06110    0.37450    0.77580    1.000
    H100     H        0.62120    0.77290    0.95240    1.000
    H101     H        0.89020    0.52520    0.69540    1.000
    H102     H        0.73830    0.35080    0.68560    1.000
    H103     H        0.54050    0.73320    0.19840    1.000
    H104     H        0.30200    0.67190    0.94160    1.000
    H105     H        0.96120    0.29090    0.79020    1.000
    H106     H        0.81000    0.73840    0.11340    1.000
    H107     H        0.72610    0.72900    0.02370    1.000
    H108     H        0.39970    0.67050    0.02850    1.000
    H109     H        0.25300    0.52750    0.72460    1.000
    H110     H        0.16330    0.43810    0.72750    1.000
    H111     H        0.97930    0.61380    0.69380    1.000
    H112     H        0.83320    0.43540    0.66660    1.000
    H113     H        0.52460    0.22590    0.13510    1.000
    H114     H        0.44840    0.27800    0.88930    1.000
    H115     H        0.06110    0.62550    0.22420    1.000
    H116     H        0.62120    0.22710    0.04760    1.000
    H117     H        0.89020    0.47480    0.30460    1.000
    H118     H        0.73830    0.64920    0.31440    1.000
    H119     H        0.54050    0.26680    0.80160    1.000
    H120     H        0.30200    0.32810    0.05840    1.000
    H121     H        0.96120    0.70910    0.20980    1.000
    H122     H        0.81000    0.26160    0.88660    1.000
    H123     H        0.72610    0.27100    0.97630    1.000
    H124     H        0.39970    0.32950    0.97150    1.000
    H125     H        0.25300    0.47250    0.27540    1.000
    H126     H        0.16330    0.56190    0.27250    1.000
    H127     H        0.97930    0.38620    0.30620    1.000
    H128     H        0.83320    0.56460    0.33340    1.000
    C97      C        0.66290    0.77190    0.34020    1.000
    C98      C        0.59760    0.77620    0.39560    1.000
    C99      C        0.87540    0.92000    0.21110    1.000
    C100     C        0.48180    0.77680    0.49980    1.000
    C101     C        0.50140    0.74640    0.39840    1.000
    C102     C        0.82070    0.86240    0.21610    1.000
    C103     C        0.98380    0.02790    0.21380    1.000
    C104     C        0.04290    0.08430    0.22120    1.000
    C105     C        0.42380    0.77410    0.55680    1.000
    C106     C        0.47720    0.77370    0.61000    1.000
    C107     C        0.00550    0.12910    0.25710    1.000
    C108     C        0.44440    0.74710    0.45040    1.000
    C109     C        0.03610    0.97440    0.20240    1.000
    C110     C        0.19520    0.14430    0.20410    1.000
    C111     C        0.42150    0.76700    0.66230    1.000
    C112     C        0.63340    0.80710    0.44380    1.000
    C113     C        0.06540    0.17890    0.26520    1.000
    C114     C        0.26460    0.76380    0.61270    1.000
    C115     C        0.31410    0.76980    0.55900    1.000
    C116     C        0.57550    0.80770    0.49550    1.000
    C117     C        0.82130    0.97300    0.21970    1.000
    C118     C        0.87450    0.02620    0.22130    1.000
    C119     C        0.98330    0.92180    0.20130    1.000
    C120     C        0.13970    0.09340    0.19310    1.000
    C121     C        0.66290    0.22810    0.65980    1.000
    C122     C        0.59760    0.22380    0.60440    1.000
    C123     C        0.87540    0.08000    0.78890    1.000
    C124     C        0.48180    0.22320    0.50020    1.000
    C125     C        0.50140    0.25360    0.60160    1.000
    C126     C        0.82070    0.13760    0.78390    1.000
    C127     C        0.98380    0.97210    0.78620    1.000
    C128     C        0.04290    0.91570    0.77880    1.000
    C129     C        0.42380    0.22590    0.44320    1.000
    C130     C        0.47720    0.22630    0.39000    1.000
    C131     C        0.00550    0.87090    0.74290    1.000
    C132     C        0.44440    0.25290    0.54960    1.000
    C133     C        0.03610    0.02560    0.79760    1.000
    C134     C        0.19520    0.85570    0.79590    1.000
    C135     C        0.42150    0.23300    0.33770    1.000
    C136     C        0.63340    0.19290    0.55620    1.000
    C137     C        0.06540    0.82110    0.73480    1.000
    C138     C        0.26460    0.23620    0.38730    1.000
    C139     C        0.31410    0.23020    0.44100    1.000
    C140     C        0.57550    0.19230    0.50450    1.000
    C141     C        0.82130    0.02700    0.78030    1.000
    C142     C        0.87450    0.97380    0.77870    1.000
    C143     C        0.98330    0.07820    0.79870    1.000
    C144     C        0.13970    0.90660    0.80690    1.000
    C145     C        0.33710    0.72810    0.84020    1.000
    C146     C        0.40240    0.72380    0.89560    1.000
    C147     C        0.12460    0.58000    0.71110    1.000
    C148     C        0.51820    0.72320    0.99980    1.000
    C149     C        0.49860    0.75360    0.89840    1.000
    C150     C        0.17930    0.63760    0.71610    1.000
    C151     C        0.01620    0.47210    0.71380    1.000
    C152     C        0.95710    0.41570    0.72120    1.000
    C153     C        0.57620    0.72590    0.05680    1.000
    C154     C        0.52280    0.72630    0.11000    1.000
    C155     C        0.99450    0.37090    0.75710    1.000
    C156     C        0.55560    0.75290    0.95040    1.000
    C157     C        0.96390    0.52560    0.70240    1.000
    C158     C        0.80480    0.35570    0.70410    1.000
    C159     C        0.57850    0.73300    0.16230    1.000
    C160     C        0.36660    0.69290    0.94380    1.000
    C161     C        0.93460    0.32110    0.76520    1.000
    C162     C        0.73540    0.73620    0.11270    1.000
    C163     C        0.68590    0.73020    0.05900    1.000
    C164     C        0.42450    0.69230    0.99550    1.000
    C165     C        0.17870    0.52700    0.71970    1.000
    C166     C        0.12550    0.47380    0.72130    1.000
    C167     C        0.01670    0.57820    0.70130    1.000
    C168     C        0.86030    0.40660    0.69310    1.000
    C169     C        0.33710    0.27190    0.15980    1.000
    C170     C        0.40240    0.27620    0.10440    1.000
    C171     C        0.12460    0.42000    0.28890    1.000
    C172     C        0.51820    0.27680    0.00020    1.000
    C173     C        0.49860    0.24640    0.10160    1.000
    C174     C        0.17930    0.36240    0.28390    1.000
    C175     C        0.01620    0.52790    0.28620    1.000
    C176     C        0.95710    0.58430    0.27880    1.000
    C177     C        0.57620    0.27410    0.94320    1.000
    C178     C        0.52280    0.27370    0.89000    1.000
    C179     C        0.99450    0.62910    0.24290    1.000
    C180     C        0.55560    0.24710    0.04960    1.000
    C181     C        0.96390    0.47440    0.29760    1.000
    C182     C        0.80480    0.64430    0.29590    1.000
    C183     C        0.57850    0.26700    0.83770    1.000
    C184     C        0.36660    0.30710    0.05620    1.000
    C185     C        0.93460    0.67890    0.23480    1.000
    C186     C        0.73540    0.26380    0.88730    1.000
    C187     C        0.68590    0.26980    0.94100    1.000
    C188     C        0.42450    0.30770    0.00450    1.000
    C189     C        0.17870    0.47300    0.28030    1.000
    C190     C        0.12550    0.52620    0.27870    1.000
    C191     C        0.01670    0.42180    0.29870    1.000
    C192     C        0.86030    0.59340    0.30690    1.000
    N9       N        0.31680    0.76085    0.66428    1.000
    N10      N        0.16040    0.18707    0.23956    1.000
    N11      N        0.31680    0.23915    0.33572    1.000
    N12      N        0.16040    0.81293    0.76044    1.000
    N13      N        0.68320    0.73915    0.16428    1.000
    N14      N        0.83960    0.31293    0.73956    1.000
    N15      N        0.68320    0.26085    0.83572    1.000
    N16      N        0.83960    0.68707    0.26044    1.000
    O17      O        0.87400    0.81553    0.21679    1.000
    O18      O        0.62290    0.74737    0.29475    1.000
    O19      O        0.75460    0.79198    0.33922    1.000
    O20      O        0.72110    0.86030    0.22263    1.000
    O21      O        0.87400    0.18447    0.78321    1.000
    O22      O        0.62290    0.25263    0.70525    1.000
    O23      O        0.75460    0.20802    0.66078    1.000
    O24      O        0.72110    0.13970    0.77737    1.000
    O25      O        0.12600    0.68447    0.71679    1.000
    O26      O        0.37710    0.75263    0.79475    1.000
    O27      O        0.24540    0.70802    0.83922    1.000
    O28      O        0.27890    0.63970    0.72263    1.000
    O29      O        0.12600    0.31553    0.28321    1.000
    O30      O        0.37710    0.24737    0.20525    1.000
    O31      O        0.24540    0.29198    0.16078    1.000
    O32      O        0.27890    0.36030    0.27737    1.000
