# CIF file generated by openbabel 3.1.0, see https://openbabel.org
data_I
_chemical_name_common 'image0'
_cell_length_a 22.9437
_cell_length_b 22.9437
_cell_length_c 15.747
_cell_angle_alpha 90
_cell_angle_beta 90
_cell_angle_gamma 120
_space_group_name_H-M_alt 'P 1'
_space_group_name_Hall 'P 1'
loop_
    _symmetry_equiv_pos_as_xyz
    x,y,z
loop_
    _atom_site_label
    _atom_site_type_symbol
    _atom_site_fract_x
    _atom_site_fract_y
    _atom_site_fract_z
    _atom_site_occupancy
    C1       C        0.32940    0.02880    0.17560    1.000
    H1       H        0.33330    0.07100    0.17140    1.000
    C2       C        0.33670    0.94560    0.22340    1.000
    C3       C        0.34760    0.90060    0.27140    1.000
    H2       H        0.36750    0.91170    0.32490    1.000
    C4       C        0.32700    0.83940    0.23450    1.000
    H3       H        0.33460    0.80850    0.26350    1.000
    C5       C        0.39260    0.20060    0.33940    1.000
    H4       H        0.36590    0.18910    0.38780    1.000
    C6       C        0.45220    0.19570    0.23770    1.000
    C7       C        0.48700    0.17940    0.18000    1.000
    H5       H        0.48630    0.13850    0.18290    1.000
    C8       C        0.52280    0.22580    0.11810    1.000
    H6       H        0.54760    0.21670    0.07890    1.000
    C9       C        0.45240    0.25670    0.23280    1.000
    C10      C        0.48870    0.30380    0.17020    1.000
    H7       H        0.48990    0.34480    0.16720    1.000
    C11      C        0.52260    0.28640    0.11290    1.000
    H8       H        0.54630    0.31620    0.06920    1.000
    C12      C        0.30400    0.92770    0.14540    1.000
    C13      C        0.28370    0.86520    0.11060    1.000
    H9       H        0.26280    0.85330    0.05780    1.000
    C14      C        0.29520    0.82090    0.15640    1.000
    H10      H        0.28160    0.77830    0.13480    1.000
    Co1      Co       0.39885    0.07006    0.34075    1.000
    N1       N        0.35260    0.01120    0.24270    1.000
    N2       N        0.41240    0.15970    0.30630    1.000
    N3       N        0.41290    0.25830    0.29990    1.000
    N4       N        0.30040    0.98250    0.11490    1.000
    C15      C        0.99607    0.36213    0.50893    1.000
    H11      H        0.99997    0.40433    0.50473    1.000
    C16      C        0.00337    0.27893    0.55673    1.000
    C17      C        0.01427    0.23393    0.60473    1.000
    H12      H        0.03417    0.24503    0.65823    1.000
    C18      C        0.99367    0.17273    0.56783    1.000
    H13      H        0.00127    0.14183    0.59683    1.000
    C19      C        0.05927    0.53393    0.67273    1.000
    H14      H        0.03257    0.52243    0.72113    1.000
    C20      C        0.11887    0.52903    0.57103    1.000
    C21      C        0.15367    0.51273    0.51333    1.000
    H15      H        0.15297    0.47183    0.51623    1.000
    C22      C        0.18947    0.55913    0.45143    1.000
    H16      H        0.21427    0.55003    0.41223    1.000
    C23      C        0.11907    0.59003    0.56613    1.000
    C24      C        0.15537    0.63713    0.50353    1.000
    H17      H        0.15657    0.67813    0.50053    1.000
    C25      C        0.18927    0.61973    0.44623    1.000
    H18      H        0.21297    0.64953    0.40253    1.000
    C26      C        0.97067    0.26103    0.47873    1.000
    C27      C        0.95037    0.19853    0.44393    1.000
    H19      H        0.92947    0.18663    0.39113    1.000
    C28      C        0.96187    0.15423    0.48973    1.000
    H20      H        0.94827    0.11163    0.46813    1.000
    Co2      Co       0.06552    0.40339    0.67408    1.000
    N5       N        0.01927    0.34453    0.57603    1.000
    N6       N        0.07907    0.49303    0.63963    1.000
    N7       N        0.07957    0.59163    0.63323    1.000
    N8       N        0.96707    0.31583    0.44823    1.000
    C29      C        0.66273    0.69547    0.84227    1.000
    H21      H        0.66663    0.73767    0.83807    1.000
    C30      C        0.67003    0.61227    0.89007    1.000
    C31      C        0.68093    0.56727    0.93807    1.000
    H22      H        0.70083    0.57837    0.99157    1.000
    C32      C        0.66033    0.50607    0.90117    1.000
    H23      H        0.66793    0.47517    0.93017    1.000
    C33      C        0.72593    0.86727    0.00607    1.000
    H24      H        0.69923    0.85577    0.05447    1.000
    C34      C        0.78553    0.86237    0.90437    1.000
    C35      C        0.82033    0.84607    0.84667    1.000
    H25      H        0.81963    0.80517    0.84957    1.000
    C36      C        0.85613    0.89247    0.78477    1.000
    H26      H        0.88093    0.88337    0.74557    1.000
    C37      C        0.78573    0.92337    0.89947    1.000
    C38      C        0.82203    0.97047    0.83687    1.000
    H27      H        0.82323    0.01147    0.83387    1.000
    C39      C        0.85593    0.95307    0.77957    1.000
    H28      H        0.87963    0.98287    0.73587    1.000
    C40      C        0.63733    0.59437    0.81207    1.000
    C41      C        0.61703    0.53187    0.77727    1.000
    H29      H        0.59613    0.51997    0.72447    1.000
    C42      C        0.62853    0.48757    0.82307    1.000
    H30      H        0.61493    0.44497    0.80147    1.000
    Co3      Co       0.73218    0.73673    0.00742    1.000
    N9       N        0.68593    0.67787    0.90937    1.000
    N10      N        0.74573    0.82637    0.97297    1.000
    N11      N        0.74623    0.92497    0.96657    1.000
    N12      N        0.63373    0.64917    0.78157    1.000
    C43      C        0.97120    0.30060    0.17560    1.000
    H31      H        0.92900    0.26230    0.17140    1.000
    C44      C        0.05440    0.39110    0.22340    1.000
    C45      C        0.09940    0.44700    0.27140    1.000
    H32      H        0.08830    0.45580    0.32490    1.000
    C46      C        0.16060    0.48760    0.23450    1.000
    H33      H        0.19150    0.52610    0.26350    1.000
    C47      C        0.79940    0.19200    0.33940    1.000
    H34      H        0.81090    0.17680    0.38780    1.000
    C48      C        0.80430    0.25650    0.23770    1.000
    C49      C        0.82060    0.30760    0.18000    1.000
    H35      H        0.86150    0.34780    0.18290    1.000
    C50      C        0.77420    0.29700    0.11810    1.000
    H36      H        0.78330    0.33090    0.07890    1.000
    C51      C        0.74330    0.19570    0.23280    1.000
    C52      C        0.69620    0.18490    0.17020    1.000
    H37      H        0.65520    0.14510    0.16720    1.000
    C53      C        0.71360    0.23620    0.11290    1.000
    H38      H        0.68380    0.23010    0.06920    1.000
    C54      C        0.07230    0.37630    0.14540    1.000
    C55      C        0.13480    0.41850    0.11060    1.000
    H39      H        0.14670    0.40950    0.05780    1.000
    C56      C        0.17910    0.47430    0.15640    1.000
    H40      H        0.22170    0.50330    0.13480    1.000
    Co4      Co       0.92994    0.32879    0.34075    1.000
    N13      N        0.98880    0.34140    0.24270    1.000
    N14      N        0.84030    0.25270    0.30630    1.000
    N15      N        0.74170    0.15460    0.29990    1.000
    N16      N        0.01750    0.31790    0.11490    1.000
    C57      C        0.63787    0.63393    0.50893    1.000
    H41      H        0.59567    0.59563    0.50473    1.000
    C58      C        0.72107    0.72443    0.55673    1.000
    C59      C        0.76607    0.78033    0.60473    1.000
    H42      H        0.75497    0.78913    0.65823    1.000
    C60      C        0.82727    0.82093    0.56783    1.000
    H43      H        0.85817    0.85943    0.59683    1.000
    C61      C        0.46607    0.52533    0.67273    1.000
    H44      H        0.47757    0.51013    0.72113    1.000
    C62      C        0.47097    0.58983    0.57103    1.000
    C63      C        0.48727    0.64093    0.51333    1.000
    H45      H        0.52817    0.68113    0.51623    1.000
    C64      C        0.44087    0.63033    0.45143    1.000
    H46      H        0.44997    0.66423    0.41223    1.000
    C65      C        0.40997    0.52903    0.56613    1.000
    C66      C        0.36287    0.51823    0.50353    1.000
    H47      H        0.32187    0.47843    0.50053    1.000
    C67      C        0.38027    0.56953    0.44623    1.000
    H48      H        0.35047    0.56343    0.40253    1.000
    C68      C        0.73897    0.70963    0.47873    1.000
    C69      C        0.80147    0.75183    0.44393    1.000
    H49      H        0.81337    0.74283    0.39113    1.000
    C70      C        0.84577    0.80763    0.48973    1.000
    H50      H        0.88837    0.83663    0.46813    1.000
    Co5      Co       0.59661    0.66212    0.67408    1.000
    N17      N        0.65547    0.67473    0.57603    1.000
    N18      N        0.50697    0.58603    0.63963    1.000
    N19      N        0.40837    0.48793    0.63323    1.000
    N20      N        0.68417    0.65123    0.44823    1.000
    C71      C        0.30453    0.96727    0.84227    1.000
    H51      H        0.26233    0.92897    0.83807    1.000
    C72      C        0.38773    0.05777    0.89007    1.000
    C73      C        0.43273    0.11367    0.93807    1.000
    H52      H        0.42163    0.12247    0.99157    1.000
    C74      C        0.49393    0.15427    0.90117    1.000
    H53      H        0.52483    0.19277    0.93017    1.000
    C75      C        0.13273    0.85867    0.00607    1.000
    H54      H        0.14423    0.84347    0.05447    1.000
    C76      C        0.13763    0.92317    0.90437    1.000
    C77      C        0.15393    0.97427    0.84667    1.000
    H55      H        0.19483    0.01447    0.84957    1.000
    C78      C        0.10753    0.96367    0.78477    1.000
    H56      H        0.11663    0.99757    0.74557    1.000
    C79      C        0.07663    0.86237    0.89947    1.000
    C80      C        0.02953    0.85157    0.83687    1.000
    H57      H        0.98853    0.81177    0.83387    1.000
    C81      C        0.04693    0.90287    0.77957    1.000
    H58      H        0.01713    0.89677    0.73587    1.000
    C82      C        0.40563    0.04297    0.81207    1.000
    C83      C        0.46813    0.08517    0.77727    1.000
    H59      H        0.48003    0.07617    0.72447    1.000
    C84      C        0.51243    0.14097    0.82307    1.000
    H60      H        0.55503    0.16997    0.80147    1.000
    Co6      Co       0.26327    0.99546    0.00742    1.000
    N21      N        0.32213    0.00807    0.90937    1.000
    N22      N        0.17363    0.91937    0.97297    1.000
    N23      N        0.07503    0.82127    0.96657    1.000
    N24      N        0.35083    0.98457    0.78157    1.000
    C85      C        0.69940    0.67060    0.17560    1.000
    H61      H        0.73770    0.66670    0.17140    1.000
    C86      C        0.60890    0.66330    0.22340    1.000
    C87      C        0.55300    0.65240    0.27140    1.000
    H62      H        0.54420    0.63250    0.32490    1.000
    C88      C        0.51240    0.67300    0.23450    1.000
    H63      H        0.47390    0.66540    0.26350    1.000
    C89      C        0.80800    0.60740    0.33940    1.000
    H64      H        0.82320    0.63410    0.38780    1.000
    C90      C        0.74350    0.54780    0.23770    1.000
    C91      C        0.69240    0.51300    0.18000    1.000
    H65      H        0.65220    0.51370    0.18290    1.000
    C92      C        0.70300    0.47720    0.11810    1.000
    H66      H        0.66910    0.45240    0.07890    1.000
    C93      C        0.80430    0.54760    0.23280    1.000
    C94      C        0.81510    0.51130    0.17020    1.000
    H67      H        0.85490    0.51010    0.16720    1.000
    C95      C        0.76380    0.47740    0.11290    1.000
    H68      H        0.76990    0.45370    0.06920    1.000
    C96      C        0.62370    0.69600    0.14540    1.000
    C97      C        0.58150    0.71630    0.11060    1.000
    H69      H        0.59050    0.73720    0.05780    1.000
    C98      C        0.52570    0.70480    0.15640    1.000
    H70      H        0.49670    0.71840    0.13480    1.000
    Co7      Co       0.67121    0.60115    0.34075    1.000
    N25      N        0.65860    0.64740    0.24270    1.000
    N26      N        0.74730    0.58760    0.30630    1.000
    N27      N        0.84540    0.58710    0.29990    1.000
    N28      N        0.68210    0.69960    0.11490    1.000
    C99      C        0.36607    0.00393    0.50893    1.000
    H71      H        0.40437    0.00003    0.50473    1.000
    C100     C        0.27557    0.99663    0.55673    1.000
    C101     C        0.21967    0.98573    0.60473    1.000
    H72      H        0.21087    0.96583    0.65823    1.000
    C102     C        0.17907    0.00633    0.56783    1.000
    H73      H        0.14057    0.99873    0.59683    1.000
    C103     C        0.47467    0.94073    0.67273    1.000
    H74      H        0.48987    0.96743    0.72113    1.000
    C104     C        0.41017    0.88113    0.57103    1.000
    C105     C        0.35907    0.84633    0.51333    1.000
    H75      H        0.31887    0.84703    0.51623    1.000
    C106     C        0.36967    0.81053    0.45143    1.000
    H76      H        0.33577    0.78573    0.41223    1.000
    C107     C        0.47097    0.88093    0.56613    1.000
    C108     C        0.48177    0.84463    0.50353    1.000
    H77      H        0.52157    0.84343    0.50053    1.000
    C109     C        0.43047    0.81073    0.44623    1.000
    H78      H        0.43657    0.78703    0.40253    1.000
    C110     C        0.29037    0.02933    0.47873    1.000
    C111     C        0.24817    0.04963    0.44393    1.000
    H79      H        0.25717    0.07053    0.39113    1.000
    C112     C        0.19237    0.03813    0.48973    1.000
    H80      H        0.16337    0.05173    0.46813    1.000
    Co8      Co       0.33788    0.93448    0.67408    1.000
    N29      N        0.32527    0.98073    0.57603    1.000
    N30      N        0.41397    0.92093    0.63963    1.000
    N31      N        0.51207    0.92043    0.63323    1.000
    N32      N        0.34877    0.03293    0.44823    1.000
    C113     C        0.03273    0.33727    0.84227    1.000
    H81      H        0.07103    0.33337    0.83807    1.000
    C114     C        0.94223    0.32997    0.89007    1.000
    C115     C        0.88633    0.31907    0.93807    1.000
    H82      H        0.87753    0.29917    0.99157    1.000
    C116     C        0.84573    0.33967    0.90117    1.000
    H83      H        0.80723    0.33207    0.93017    1.000
    C117     C        0.14133    0.27407    0.00607    1.000
    H84      H        0.15653    0.30077    0.05447    1.000
    C118     C        0.07683    0.21447    0.90437    1.000
    C119     C        0.02573    0.17967    0.84667    1.000
    H85      H        0.98553    0.18037    0.84957    1.000
    C120     C        0.03633    0.14387    0.78477    1.000
    H86      H        0.00243    0.11907    0.74557    1.000
    C121     C        0.13763    0.21427    0.89947    1.000
    C122     C        0.14843    0.17797    0.83687    1.000
    H87      H        0.18823    0.17677    0.83387    1.000
    C123     C        0.09713    0.14407    0.77957    1.000
    H88      H        0.10323    0.12037    0.73587    1.000
    C124     C        0.95703    0.36267    0.81207    1.000
    C125     C        0.91483    0.38297    0.77727    1.000
    H89      H        0.92383    0.40387    0.72447    1.000
    C126     C        0.85903    0.37147    0.82307    1.000
    H90      H        0.83003    0.38507    0.80147    1.000
    Co9      Co       0.00454    0.26782    0.00742    1.000
    N33      N        0.99193    0.31407    0.90937    1.000
    N34      N        0.08063    0.25427    0.97297    1.000
    N35      N        0.17873    0.25377    0.96657    1.000
    N36      N        0.01543    0.36627    0.78157    1.000
    C127     C        0.67060    0.97120    0.82440    1.000
    H91      H        0.66670    0.92900    0.82860    1.000
    C128     C        0.66330    0.05440    0.77660    1.000
    C129     C        0.65240    0.09940    0.72860    1.000
    H92      H        0.63250    0.08830    0.67510    1.000
    C130     C        0.67300    0.16060    0.76550    1.000
    H93      H        0.66540    0.19150    0.73650    1.000
    C131     C        0.60740    0.79940    0.66060    1.000
    H94      H        0.63410    0.81090    0.61220    1.000
    C132     C        0.54780    0.80430    0.76230    1.000
    C133     C        0.51300    0.82060    0.82000    1.000
    H95      H        0.51370    0.86150    0.81710    1.000
    C134     C        0.47720    0.77420    0.88190    1.000
    H96      H        0.45240    0.78330    0.92110    1.000
    C135     C        0.54760    0.74330    0.76720    1.000
    C136     C        0.51130    0.69620    0.82980    1.000
    H97      H        0.51010    0.65520    0.83280    1.000
    C137     C        0.47740    0.71360    0.88710    1.000
    H98      H        0.45370    0.68380    0.93080    1.000
    C138     C        0.69600    0.07230    0.85460    1.000
    C139     C        0.71630    0.13480    0.88940    1.000
    H99      H        0.73720    0.14670    0.94220    1.000
    C140     C        0.70480    0.17910    0.84360    1.000
    H100     H        0.71840    0.22170    0.86520    1.000
    Co10     Co       0.60115    0.92994    0.65925    1.000
    N37      N        0.64740    0.98880    0.75730    1.000
    N38      N        0.58760    0.84030    0.69370    1.000
    N39      N        0.58710    0.74170    0.70010    1.000
    N40      N        0.69960    0.01750    0.88510    1.000
    C141     C        0.33727    0.30453    0.15773    1.000
    H101     H        0.33337    0.26233    0.16193    1.000
    C142     C        0.32997    0.38773    0.10993    1.000
    C143     C        0.31907    0.43273    0.06193    1.000
    H102     H        0.29917    0.42163    0.00843    1.000
    C144     C        0.33967    0.49393    0.09883    1.000
    H103     H        0.33207    0.52483    0.06983    1.000
    C145     C        0.27407    0.13273    0.99393    1.000
    H104     H        0.30077    0.14423    0.94553    1.000
    C146     C        0.21447    0.13763    0.09563    1.000
    C147     C        0.17967    0.15393    0.15333    1.000
    H105     H        0.18037    0.19483    0.15043    1.000
    C148     C        0.14387    0.10753    0.21523    1.000
    H106     H        0.11907    0.11663    0.25443    1.000
    C149     C        0.21427    0.07663    0.10053    1.000
    C150     C        0.17797    0.02953    0.16313    1.000
    H107     H        0.17677    0.98853    0.16613    1.000
    C151     C        0.14407    0.04693    0.22043    1.000
    H108     H        0.12037    0.01713    0.26413    1.000
    C152     C        0.36267    0.40563    0.18793    1.000
    C153     C        0.38297    0.46813    0.22273    1.000
    H109     H        0.40387    0.48003    0.27553    1.000
    C154     C        0.37147    0.51243    0.17693    1.000
    H110     H        0.38507    0.55503    0.19853    1.000
    Co11     Co       0.26782    0.26327    0.99258    1.000
    N41      N        0.31407    0.32213    0.09063    1.000
    N42      N        0.25427    0.17363    0.02703    1.000
    N43      N        0.25377    0.07503    0.03343    1.000
    N44      N        0.36627    0.35083    0.21843    1.000
    C155     C        0.00393    0.63787    0.49107    1.000
    H111     H        0.00003    0.59567    0.49527    1.000
    C156     C        0.99663    0.72107    0.44327    1.000
    C157     C        0.98573    0.76607    0.39527    1.000
    H112     H        0.96583    0.75497    0.34177    1.000
    C158     C        0.00633    0.82727    0.43217    1.000
    H113     H        0.99873    0.85817    0.40317    1.000
    C159     C        0.94073    0.46607    0.32727    1.000
    H114     H        0.96743    0.47757    0.27887    1.000
    C160     C        0.88113    0.47097    0.42897    1.000
    C161     C        0.84633    0.48727    0.48667    1.000
    H115     H        0.84703    0.52817    0.48377    1.000
    C162     C        0.81053    0.44087    0.54857    1.000
    H116     H        0.78573    0.44997    0.58777    1.000
    C163     C        0.88093    0.40997    0.43387    1.000
    C164     C        0.84463    0.36287    0.49647    1.000
    H117     H        0.84343    0.32187    0.49947    1.000
    C165     C        0.81073    0.38027    0.55377    1.000
    H118     H        0.78703    0.35047    0.59747    1.000
    C166     C        0.02933    0.73897    0.52127    1.000
    C167     C        0.04963    0.80147    0.55607    1.000
    H119     H        0.07053    0.81337    0.60887    1.000
    C168     C        0.03813    0.84577    0.51027    1.000
    H120     H        0.05173    0.88837    0.53187    1.000
    Co12     Co       0.93448    0.59661    0.32592    1.000
    N45      N        0.98073    0.65547    0.42397    1.000
    N46      N        0.92093    0.50697    0.36037    1.000
    N47      N        0.92043    0.40837    0.36677    1.000
    N48      N        0.03293    0.68417    0.55177    1.000
    C169     C        0.02880    0.69940    0.82440    1.000
    H121     H        0.07100    0.73770    0.82860    1.000
    C170     C        0.94560    0.60890    0.77660    1.000
    C171     C        0.90060    0.55300    0.72860    1.000
    H122     H        0.91170    0.54420    0.67510    1.000
    C172     C        0.83940    0.51240    0.76550    1.000
    H123     H        0.80850    0.47390    0.73650    1.000
    C173     C        0.20060    0.80800    0.66060    1.000
    H124     H        0.18910    0.82320    0.61220    1.000
    C174     C        0.19570    0.74350    0.76230    1.000
    C175     C        0.17940    0.69240    0.82000    1.000
    H125     H        0.13850    0.65220    0.81710    1.000
    C176     C        0.22580    0.70300    0.88190    1.000
    H126     H        0.21670    0.66910    0.92110    1.000
    C177     C        0.25670    0.80430    0.76720    1.000
    C178     C        0.30380    0.81510    0.82980    1.000
    H127     H        0.34480    0.85490    0.83280    1.000
    C179     C        0.28640    0.76380    0.88710    1.000
    H128     H        0.31620    0.76990    0.93080    1.000
    C180     C        0.92770    0.62370    0.85460    1.000
    C181     C        0.86520    0.58150    0.88940    1.000
    H129     H        0.85330    0.59050    0.94220    1.000
    C182     C        0.82090    0.52570    0.84360    1.000
    H130     H        0.77830    0.49670    0.86520    1.000
    Co13     Co       0.07006    0.67121    0.65925    1.000
    N49      N        0.01120    0.65860    0.75730    1.000
    N50      N        0.15970    0.74730    0.69370    1.000
    N51      N        0.25830    0.84540    0.70010    1.000
    N52      N        0.98250    0.68210    0.88510    1.000
    C183     C        0.69547    0.03273    0.15773    1.000
    H131     H        0.73767    0.07103    0.16193    1.000
    C184     C        0.61227    0.94223    0.10993    1.000
    C185     C        0.56727    0.88633    0.06193    1.000
    H132     H        0.57837    0.87753    0.00843    1.000
    C186     C        0.50607    0.84573    0.09883    1.000
    H133     H        0.47517    0.80723    0.06983    1.000
    C187     C        0.86727    0.14133    0.99393    1.000
    H134     H        0.85577    0.15653    0.94553    1.000
    C188     C        0.86237    0.07683    0.09563    1.000
    C189     C        0.84607    0.02573    0.15333    1.000
    H135     H        0.80517    0.98553    0.15043    1.000
    C190     C        0.89247    0.03633    0.21523    1.000
    H136     H        0.88337    0.00243    0.25443    1.000
    C191     C        0.92337    0.13763    0.10053    1.000
    C192     C        0.97047    0.14843    0.16313    1.000
    H137     H        0.01147    0.18823    0.16613    1.000
    C193     C        0.95307    0.09713    0.22043    1.000
    H138     H        0.98287    0.10323    0.26413    1.000
    C194     C        0.59437    0.95703    0.18793    1.000
    C195     C        0.53187    0.91483    0.22273    1.000
    H139     H        0.51997    0.92383    0.27553    1.000
    C196     C        0.48757    0.85903    0.17693    1.000
    H140     H        0.44497    0.83003    0.19853    1.000
    Co14     Co       0.73673    0.00454    0.99258    1.000
    N53      N        0.67787    0.99193    0.09063    1.000
    N54      N        0.82637    0.08063    0.02703    1.000
    N55      N        0.92497    0.17873    0.03343    1.000
    N56      N        0.64917    0.01543    0.21843    1.000
    C197     C        0.36213    0.36607    0.49107    1.000
    H141     H        0.40433    0.40437    0.49527    1.000
    C198     C        0.27893    0.27557    0.44327    1.000
    C199     C        0.23393    0.21967    0.39527    1.000
    H142     H        0.24503    0.21087    0.34177    1.000
    C200     C        0.17273    0.17907    0.43217    1.000
    H143     H        0.14183    0.14057    0.40317    1.000
    C201     C        0.53393    0.47467    0.32727    1.000
    H144     H        0.52243    0.48987    0.27887    1.000
    C202     C        0.52903    0.41017    0.42897    1.000
    C203     C        0.51273    0.35907    0.48667    1.000
    H145     H        0.47183    0.31887    0.48377    1.000
    C204     C        0.55913    0.36967    0.54857    1.000
    H146     H        0.55003    0.33577    0.58777    1.000
    C205     C        0.59003    0.47097    0.43387    1.000
    C206     C        0.63713    0.48177    0.49647    1.000
    H147     H        0.67813    0.52157    0.49947    1.000
    C207     C        0.61973    0.43047    0.55377    1.000
    H148     H        0.64953    0.43657    0.59747    1.000
    C208     C        0.26103    0.29037    0.52127    1.000
    C209     C        0.19853    0.24817    0.55607    1.000
    H149     H        0.18663    0.25717    0.60887    1.000
    C210     C        0.15423    0.19237    0.51027    1.000
    H150     H        0.11163    0.16337    0.53187    1.000
    Co15     Co       0.40339    0.33788    0.32592    1.000
    N57      N        0.34453    0.32527    0.42397    1.000
    N58      N        0.49303    0.41397    0.36037    1.000
    N59      N        0.59163    0.51207    0.36677    1.000
    N60      N        0.31583    0.34877    0.55177    1.000
    C211     C        0.30060    0.32940    0.82440    1.000
    H151     H        0.26230    0.33330    0.82860    1.000
    C212     C        0.39110    0.33670    0.77660    1.000
    C213     C        0.44700    0.34760    0.72860    1.000
    H152     H        0.45580    0.36750    0.67510    1.000
    C214     C        0.48760    0.32700    0.76550    1.000
    H153     H        0.52610    0.33460    0.73650    1.000
    C215     C        0.19200    0.39260    0.66060    1.000
    H154     H        0.17680    0.36590    0.61220    1.000
    C216     C        0.25650    0.45220    0.76230    1.000
    C217     C        0.30760    0.48700    0.82000    1.000
    H155     H        0.34780    0.48630    0.81710    1.000
    C218     C        0.29700    0.52280    0.88190    1.000
    H156     H        0.33090    0.54760    0.92110    1.000
    C219     C        0.19570    0.45240    0.76720    1.000
    C220     C        0.18490    0.48870    0.82980    1.000
    H157     H        0.14510    0.48990    0.83280    1.000
    C221     C        0.23620    0.52260    0.88710    1.000
    H158     H        0.23010    0.54630    0.93080    1.000
    C222     C        0.37630    0.30400    0.85460    1.000
    C223     C        0.41850    0.28370    0.88940    1.000
    H159     H        0.40950    0.26280    0.94220    1.000
    C224     C        0.47430    0.29520    0.84360    1.000
    H160     H        0.50330    0.28160    0.86520    1.000
    Co16     Co       0.32879    0.39885    0.65925    1.000
    N61      N        0.34140    0.35260    0.75730    1.000
    N62      N        0.25270    0.41240    0.69370    1.000
    N63      N        0.15460    0.41290    0.70010    1.000
    N64      N        0.31790    0.30040    0.88510    1.000
    C225     C        0.96727    0.66273    0.15773    1.000
    H161     H        0.92897    0.66663    0.16193    1.000
    C226     C        0.05777    0.67003    0.10993    1.000
    C227     C        0.11367    0.68093    0.06193    1.000
    H162     H        0.12247    0.70083    0.00843    1.000
    C228     C        0.15427    0.66033    0.09883    1.000
    H163     H        0.19277    0.66793    0.06983    1.000
    C229     C        0.85867    0.72593    0.99393    1.000
    H164     H        0.84347    0.69923    0.94553    1.000
    C230     C        0.92317    0.78553    0.09563    1.000
    C231     C        0.97427    0.82033    0.15333    1.000
    H165     H        0.01447    0.81963    0.15043    1.000
    C232     C        0.96367    0.85613    0.21523    1.000
    H166     H        0.99757    0.88093    0.25443    1.000
    C233     C        0.86237    0.78573    0.10053    1.000
    C234     C        0.85157    0.82203    0.16313    1.000
    H167     H        0.81177    0.82323    0.16613    1.000
    C235     C        0.90287    0.85593    0.22043    1.000
    H168     H        0.89677    0.87963    0.26413    1.000
    C236     C        0.04297    0.63733    0.18793    1.000
    C237     C        0.08517    0.61703    0.22273    1.000
    H169     H        0.07617    0.59613    0.27553    1.000
    C238     C        0.14097    0.62853    0.17693    1.000
    H170     H        0.16997    0.61493    0.19853    1.000
    Co17     Co       0.99546    0.73218    0.99258    1.000
    N65      N        0.00807    0.68593    0.09063    1.000
    N66      N        0.91937    0.74573    0.02703    1.000
    N67      N        0.82127    0.74623    0.03343    1.000
    N68      N        0.98457    0.63373    0.21843    1.000
    C239     C        0.63393    0.99607    0.49107    1.000
    H171     H        0.59563    0.99997    0.49527    1.000
    C240     C        0.72443    0.00337    0.44327    1.000
    C241     C        0.78033    0.01427    0.39527    1.000
    H172     H        0.78913    0.03417    0.34177    1.000
    C242     C        0.82093    0.99367    0.43217    1.000
    H173     H        0.85943    0.00127    0.40317    1.000
    C243     C        0.52533    0.05927    0.32727    1.000
    H174     H        0.51013    0.03257    0.27887    1.000
    C244     C        0.58983    0.11887    0.42897    1.000
    C245     C        0.64093    0.15367    0.48667    1.000
    H175     H        0.68113    0.15297    0.48377    1.000
    C246     C        0.63033    0.18947    0.54857    1.000
    H176     H        0.66423    0.21427    0.58777    1.000
    C247     C        0.52903    0.11907    0.43387    1.000
    C248     C        0.51823    0.15537    0.49647    1.000
    H177     H        0.47843    0.15657    0.49947    1.000
    C249     C        0.56953    0.18927    0.55377    1.000
    H178     H        0.56343    0.21297    0.59747    1.000
    C250     C        0.70963    0.97067    0.52127    1.000
    C251     C        0.75183    0.95037    0.55607    1.000
    H179     H        0.74283    0.92947    0.60887    1.000
    C252     C        0.80763    0.96187    0.51027    1.000
    H180     H        0.83663    0.94827    0.53187    1.000
    Co18     Co       0.66212    0.06552    0.32592    1.000
    N69      N        0.67473    0.01927    0.42397    1.000
    N70      N        0.58603    0.07907    0.36037    1.000
    N71      N        0.48793    0.07957    0.36677    1.000
    N72      N        0.65123    0.96707    0.55177    1.000
