# CIF file generated by openbabel 3.1.0, see https://openbabel.org
data_I
_chemical_name_common 'image0'
_cell_length_a 22.0354
_cell_length_b 22.0354
_cell_length_c 22.0354
_cell_angle_alpha 90
_cell_angle_beta 90
_cell_angle_gamma 90
_space_group_name_H-M_alt 'P 1'
_space_group_name_Hall 'P 1'
loop_
    _symmetry_equiv_pos_as_xyz
    x,y,z
loop_
    _atom_site_label
    _atom_site_type_symbol
    _atom_site_fract_x
    _atom_site_fract_y
    _atom_site_fract_z
    _atom_site_occupancy
    Mg1      Mg       0.17839    0.23958    0.30571    1.000
    C1       C        0.98200    0.29410    0.07800    1.000
    C2       C        0.93060    0.29580    0.11250    1.000
    H1       H        0.89320    0.29950    0.09340    1.000
    C3       C        0.93270    0.29200    0.17490    1.000
    C4       C        0.98860    0.28520    0.20170    1.000
    H2       H        0.99100    0.27960    0.24350    1.000
    C5       C        0.04210    0.28660    0.16720    1.000
    C6       C        0.04020    0.28830    0.10650    1.000
    H3       H        0.07550    0.28580    0.08360    1.000
    C7       C        0.87330    0.29180    0.20790    1.000
    C8       C        0.10310    0.27790    0.19750    1.000
    O1       O        0.82760    0.30990    0.17790    1.000
    O2       O        0.87390    0.27850    0.26330    1.000
    O3       O        0.14890    0.29230    0.16610    1.000
    O4       O        0.10520    0.25860    0.25170    1.000
    N1       N        0.97650    0.29590    0.01420    1.000
    Mg2      Mg       0.82161    0.76042    0.30571    1.000
    C9       C        0.01800    0.70590    0.07800    1.000
    C10      C        0.06940    0.70420    0.11250    1.000
    H4       H        0.10680    0.70050    0.09340    1.000
    C11      C        0.06730    0.70800    0.17490    1.000
    C12      C        0.01140    0.71480    0.20170    1.000
    H5       H        0.00900    0.72040    0.24350    1.000
    C13      C        0.95790    0.71340    0.16720    1.000
    C14      C        0.95980    0.71170    0.10650    1.000
    H6       H        0.92450    0.71420    0.08360    1.000
    C15      C        0.12670    0.70820    0.20790    1.000
    C16      C        0.89690    0.72210    0.19750    1.000
    O5       O        0.17240    0.69010    0.17790    1.000
    O6       O        0.12610    0.72150    0.26330    1.000
    O7       O        0.85110    0.70770    0.16610    1.000
    O8       O        0.89480    0.74140    0.25170    1.000
    N2       N        0.02350    0.70410    0.01420    1.000
    Mg3      Mg       0.82161    0.23958    0.69429    1.000
    C17      C        0.01800    0.29410    0.92200    1.000
    C18      C        0.06940    0.29580    0.88750    1.000
    H7       H        0.10680    0.29950    0.90660    1.000
    C19      C        0.06730    0.29200    0.82510    1.000
    C20      C        0.01140    0.28520    0.79830    1.000
    H8       H        0.00900    0.27960    0.75650    1.000
    C21      C        0.95790    0.28660    0.83280    1.000
    C22      C        0.95980    0.28830    0.89350    1.000
    H9       H        0.92450    0.28580    0.91640    1.000
    C23      C        0.12670    0.29180    0.79210    1.000
    C24      C        0.89690    0.27790    0.80250    1.000
    O9       O        0.17240    0.30990    0.82210    1.000
    O10      O        0.12610    0.27850    0.73670    1.000
    O11      O        0.85110    0.29230    0.83390    1.000
    O12      O        0.89480    0.25860    0.74830    1.000
    N3       N        0.02350    0.29590    0.98580    1.000
    Mg4      Mg       0.17839    0.76042    0.69429    1.000
    C25      C        0.98200    0.70590    0.92200    1.000
    C26      C        0.93060    0.70420    0.88750    1.000
    H10      H        0.89320    0.70050    0.90660    1.000
    C27      C        0.93270    0.70800    0.82510    1.000
    C28      C        0.98860    0.71480    0.79830    1.000
    H11      H        0.99100    0.72040    0.75650    1.000
    C29      C        0.04210    0.71340    0.83280    1.000
    C30      C        0.04020    0.71170    0.89350    1.000
    H12      H        0.07550    0.71420    0.91640    1.000
    C31      C        0.87330    0.70820    0.79210    1.000
    C32      C        0.10310    0.72210    0.80250    1.000
    O13      O        0.82760    0.69010    0.82210    1.000
    O14      O        0.87390    0.72150    0.73670    1.000
    O15      O        0.14890    0.70770    0.83390    1.000
    O16      O        0.10520    0.74140    0.74830    1.000
    N4       N        0.97650    0.70410    0.98580    1.000
    Mg5      Mg       0.30571    0.17839    0.23958    1.000
    C33      C        0.07800    0.98200    0.29410    1.000
    C34      C        0.11250    0.93060    0.29580    1.000
    H13      H        0.09340    0.89320    0.29950    1.000
    C35      C        0.17490    0.93270    0.29200    1.000
    C36      C        0.20170    0.98860    0.28520    1.000
    H14      H        0.24350    0.99100    0.27960    1.000
    C37      C        0.16720    0.04210    0.28660    1.000
    C38      C        0.10650    0.04020    0.28830    1.000
    H15      H        0.08360    0.07550    0.28580    1.000
    C39      C        0.20790    0.87330    0.29180    1.000
    C40      C        0.19750    0.10310    0.27790    1.000
    O17      O        0.17790    0.82760    0.30990    1.000
    O18      O        0.26330    0.87390    0.27850    1.000
    O19      O        0.16610    0.14890    0.29230    1.000
    O20      O        0.25170    0.10520    0.25860    1.000
    N5       N        0.01420    0.97650    0.29590    1.000
    Mg6      Mg       0.30571    0.82161    0.76042    1.000
    C41      C        0.07800    0.01800    0.70590    1.000
    C42      C        0.11250    0.06940    0.70420    1.000
    H16      H        0.09340    0.10680    0.70050    1.000
    C43      C        0.17490    0.06730    0.70800    1.000
    C44      C        0.20170    0.01140    0.71480    1.000
    H17      H        0.24350    0.00900    0.72040    1.000
    C45      C        0.16720    0.95790    0.71340    1.000
    C46      C        0.10650    0.95980    0.71170    1.000
    H18      H        0.08360    0.92450    0.71420    1.000
    C47      C        0.20790    0.12670    0.70820    1.000
    C48      C        0.19750    0.89690    0.72210    1.000
    O21      O        0.17790    0.17240    0.69010    1.000
    O22      O        0.26330    0.12610    0.72150    1.000
    O23      O        0.16610    0.85110    0.70770    1.000
    O24      O        0.25170    0.89480    0.74140    1.000
    N6       N        0.01420    0.02350    0.70410    1.000
    Mg7      Mg       0.69429    0.82161    0.23958    1.000
    C49      C        0.92200    0.01800    0.29410    1.000
    C50      C        0.88750    0.06940    0.29580    1.000
    H19      H        0.90660    0.10680    0.29950    1.000
    C51      C        0.82510    0.06730    0.29200    1.000
    C52      C        0.79830    0.01140    0.28520    1.000
    H20      H        0.75650    0.00900    0.27960    1.000
    C53      C        0.83280    0.95790    0.28660    1.000
    C54      C        0.89350    0.95980    0.28830    1.000
    H21      H        0.91640    0.92450    0.28580    1.000
    C55      C        0.79210    0.12670    0.29180    1.000
    C56      C        0.80250    0.89690    0.27790    1.000
    O25      O        0.82210    0.17240    0.30990    1.000
    O26      O        0.73670    0.12610    0.27850    1.000
    O27      O        0.83390    0.85110    0.29230    1.000
    O28      O        0.74830    0.89480    0.25860    1.000
    N7       N        0.98580    0.02350    0.29590    1.000
    Mg8      Mg       0.69429    0.17839    0.76042    1.000
    C57      C        0.92200    0.98200    0.70590    1.000
    C58      C        0.88750    0.93060    0.70420    1.000
    H22      H        0.90660    0.89320    0.70050    1.000
    C59      C        0.82510    0.93270    0.70800    1.000
    C60      C        0.79830    0.98860    0.71480    1.000
    H23      H        0.75650    0.99100    0.72040    1.000
    C61      C        0.83280    0.04210    0.71340    1.000
    C62      C        0.89350    0.04020    0.71170    1.000
    H24      H        0.91640    0.07550    0.71420    1.000
    C63      C        0.79210    0.87330    0.70820    1.000
    C64      C        0.80250    0.10310    0.72210    1.000
    O29      O        0.82210    0.82760    0.69010    1.000
    O30      O        0.73670    0.87390    0.72150    1.000
    O31      O        0.83390    0.14890    0.70770    1.000
    O32      O        0.74830    0.10520    0.74140    1.000
    N8       N        0.98580    0.97650    0.70410    1.000
    Mg9      Mg       0.23958    0.30571    0.17839    1.000
    C65      C        0.29410    0.07800    0.98200    1.000
    C66      C        0.29580    0.11250    0.93060    1.000
    H25      H        0.29950    0.09340    0.89320    1.000
    C67      C        0.29200    0.17490    0.93270    1.000
    C68      C        0.28520    0.20170    0.98860    1.000
    H26      H        0.27960    0.24350    0.99100    1.000
    C69      C        0.28660    0.16720    0.04210    1.000
    C70      C        0.28830    0.10650    0.04020    1.000
    H27      H        0.28580    0.08360    0.07550    1.000
    C71      C        0.29180    0.20790    0.87330    1.000
    C72      C        0.27790    0.19750    0.10310    1.000
    O33      O        0.30990    0.17790    0.82760    1.000
    O34      O        0.27850    0.26330    0.87390    1.000
    O35      O        0.29230    0.16610    0.14890    1.000
    O36      O        0.25860    0.25170    0.10520    1.000
    N9       N        0.29590    0.01420    0.97650    1.000
    Mg10     Mg       0.76042    0.30571    0.82161    1.000
    C73      C        0.70590    0.07800    0.01800    1.000
    C74      C        0.70420    0.11250    0.06940    1.000
    H28      H        0.70050    0.09340    0.10680    1.000
    C75      C        0.70800    0.17490    0.06730    1.000
    C76      C        0.71480    0.20170    0.01140    1.000
    H29      H        0.72040    0.24350    0.00900    1.000
    C77      C        0.71340    0.16720    0.95790    1.000
    C78      C        0.71170    0.10650    0.95980    1.000
    H30      H        0.71420    0.08360    0.92450    1.000
    C79      C        0.70820    0.20790    0.12670    1.000
    C80      C        0.72210    0.19750    0.89690    1.000
    O37      O        0.69010    0.17790    0.17240    1.000
    O38      O        0.72150    0.26330    0.12610    1.000
    O39      O        0.70770    0.16610    0.85110    1.000
    O40      O        0.74140    0.25170    0.89480    1.000
    N10      N        0.70410    0.01420    0.02350    1.000
    Mg11     Mg       0.23958    0.69429    0.82161    1.000
    C81      C        0.29410    0.92200    0.01800    1.000
    C82      C        0.29580    0.88750    0.06940    1.000
    H31      H        0.29950    0.90660    0.10680    1.000
    C83      C        0.29200    0.82510    0.06730    1.000
    C84      C        0.28520    0.79830    0.01140    1.000
    H32      H        0.27960    0.75650    0.00900    1.000
    C85      C        0.28660    0.83280    0.95790    1.000
    C86      C        0.28830    0.89350    0.95980    1.000
    H33      H        0.28580    0.91640    0.92450    1.000
    C87      C        0.29180    0.79210    0.12670    1.000
    C88      C        0.27790    0.80250    0.89690    1.000
    O41      O        0.30990    0.82210    0.17240    1.000
    O42      O        0.27850    0.73670    0.12610    1.000
    O43      O        0.29230    0.83390    0.85110    1.000
    O44      O        0.25860    0.74830    0.89480    1.000
    N11      N        0.29590    0.98580    0.02350    1.000
    Mg12     Mg       0.76042    0.69429    0.17839    1.000
    C89      C        0.70590    0.92200    0.98200    1.000
    C90      C        0.70420    0.88750    0.93060    1.000
    H34      H        0.70050    0.90660    0.89320    1.000
    C91      C        0.70800    0.82510    0.93270    1.000
    C92      C        0.71480    0.79830    0.98860    1.000
    H35      H        0.72040    0.75650    0.99100    1.000
    C93      C        0.71340    0.83280    0.04210    1.000
    C94      C        0.71170    0.89350    0.04020    1.000
    H36      H        0.71420    0.91640    0.07550    1.000
    C95      C        0.70820    0.79210    0.87330    1.000
    C96      C        0.72210    0.80250    0.10310    1.000
    O45      O        0.69010    0.82210    0.82760    1.000
    O46      O        0.72150    0.73670    0.87390    1.000
    O47      O        0.70770    0.83390    0.14890    1.000
    O48      O        0.74140    0.74830    0.10520    1.000
    N12      N        0.70410    0.98580    0.97650    1.000
    Mg13     Mg       0.73958    0.67839    0.80571    1.000
    C97      C        0.79410    0.48200    0.57800    1.000
    C98      C        0.79580    0.43060    0.61250    1.000
    H37      H        0.79950    0.39320    0.59340    1.000
    C99      C        0.79200    0.43270    0.67490    1.000
    C100     C        0.78520    0.48860    0.70170    1.000
    H38      H        0.77960    0.49100    0.74350    1.000
    C101     C        0.78660    0.54210    0.66720    1.000
    C102     C        0.78830    0.54020    0.60650    1.000
    H39      H        0.78580    0.57550    0.58360    1.000
    C103     C        0.79180    0.37330    0.70790    1.000
    C104     C        0.77790    0.60310    0.69750    1.000
    O49      O        0.80990    0.32760    0.67790    1.000
    O50      O        0.77850    0.37390    0.76330    1.000
    O51      O        0.79230    0.64890    0.66610    1.000
    O52      O        0.75860    0.60520    0.75170    1.000
    N13      N        0.79590    0.47650    0.51420    1.000
    Mg14     Mg       0.26042    0.32161    0.80571    1.000
    C105     C        0.20590    0.51800    0.57800    1.000
    C106     C        0.20420    0.56940    0.61250    1.000
    H40      H        0.20050    0.60680    0.59340    1.000
    C107     C        0.20800    0.56730    0.67490    1.000
    C108     C        0.21480    0.51140    0.70170    1.000
    H41      H        0.22040    0.50900    0.74350    1.000
    C109     C        0.21340    0.45790    0.66720    1.000
    C110     C        0.21170    0.45980    0.60650    1.000
    H42      H        0.21420    0.42450    0.58360    1.000
    C111     C        0.20820    0.62670    0.70790    1.000
    C112     C        0.22210    0.39690    0.69750    1.000
    O53      O        0.19010    0.67240    0.67790    1.000
    O54      O        0.22150    0.62610    0.76330    1.000
    O55      O        0.20770    0.35110    0.66610    1.000
    O56      O        0.24140    0.39480    0.75170    1.000
    N14      N        0.20410    0.52350    0.51420    1.000
    Mg15     Mg       0.73958    0.32161    0.19429    1.000
    C113     C        0.79410    0.51800    0.42200    1.000
    C114     C        0.79580    0.56940    0.38750    1.000
    H43      H        0.79950    0.60680    0.40660    1.000
    C115     C        0.79200    0.56730    0.32510    1.000
    C116     C        0.78520    0.51140    0.29830    1.000
    H44      H        0.77960    0.50900    0.25650    1.000
    C117     C        0.78660    0.45790    0.33280    1.000
    C118     C        0.78830    0.45980    0.39350    1.000
    H45      H        0.78580    0.42450    0.41640    1.000
    C119     C        0.79180    0.62670    0.29210    1.000
    C120     C        0.77790    0.39690    0.30250    1.000
    O57      O        0.80990    0.67240    0.32210    1.000
    O58      O        0.77850    0.62610    0.23670    1.000
    O59      O        0.79230    0.35110    0.33390    1.000
    O60      O        0.75860    0.39480    0.24830    1.000
    N15      N        0.79590    0.52350    0.48580    1.000
    Mg16     Mg       0.26042    0.67839    0.19429    1.000
    C121     C        0.20590    0.48200    0.42200    1.000
    C122     C        0.20420    0.43060    0.38750    1.000
    H46      H        0.20050    0.39320    0.40660    1.000
    C123     C        0.20800    0.43270    0.32510    1.000
    C124     C        0.21480    0.48860    0.29830    1.000
    H47      H        0.22040    0.49100    0.25650    1.000
    C125     C        0.21340    0.54210    0.33280    1.000
    C126     C        0.21170    0.54020    0.39350    1.000
    H48      H        0.21420    0.57550    0.41640    1.000
    C127     C        0.20820    0.37330    0.29210    1.000
    C128     C        0.22210    0.60310    0.30250    1.000
    O61      O        0.19010    0.32760    0.32210    1.000
    O62      O        0.22150    0.37390    0.23670    1.000
    O63      O        0.20770    0.64890    0.33390    1.000
    O64      O        0.24140    0.60520    0.24830    1.000
    N16      N        0.20410    0.47650    0.48580    1.000
    Mg17     Mg       0.67839    0.80571    0.73958    1.000
    C129     C        0.48200    0.57800    0.79410    1.000
    C130     C        0.43060    0.61250    0.79580    1.000
    H49      H        0.39320    0.59340    0.79950    1.000
    C131     C        0.43270    0.67490    0.79200    1.000
    C132     C        0.48860    0.70170    0.78520    1.000
    H50      H        0.49100    0.74350    0.77960    1.000
    C133     C        0.54210    0.66720    0.78660    1.000
    C134     C        0.54020    0.60650    0.78830    1.000
    H51      H        0.57550    0.58360    0.78580    1.000
    C135     C        0.37330    0.70790    0.79180    1.000
    C136     C        0.60310    0.69750    0.77790    1.000
    O65      O        0.32760    0.67790    0.80990    1.000
    O66      O        0.37390    0.76330    0.77850    1.000
    O67      O        0.64890    0.66610    0.79230    1.000
    O68      O        0.60520    0.75170    0.75860    1.000
    N17      N        0.47650    0.51420    0.79590    1.000
    Mg18     Mg       0.32161    0.80571    0.26042    1.000
    C137     C        0.51800    0.57800    0.20590    1.000
    C138     C        0.56940    0.61250    0.20420    1.000
    H52      H        0.60680    0.59340    0.20050    1.000
    C139     C        0.56730    0.67490    0.20800    1.000
    C140     C        0.51140    0.70170    0.21480    1.000
    H53      H        0.50900    0.74350    0.22040    1.000
    C141     C        0.45790    0.66720    0.21340    1.000
    C142     C        0.45980    0.60650    0.21170    1.000
    H54      H        0.42450    0.58360    0.21420    1.000
    C143     C        0.62670    0.70790    0.20820    1.000
    C144     C        0.39690    0.69750    0.22210    1.000
    O69      O        0.67240    0.67790    0.19010    1.000
    O70      O        0.62610    0.76330    0.22150    1.000
    O71      O        0.35110    0.66610    0.20770    1.000
    O72      O        0.39480    0.75170    0.24140    1.000
    N18      N        0.52350    0.51420    0.20410    1.000
    Mg19     Mg       0.32161    0.19429    0.73958    1.000
    C145     C        0.51800    0.42200    0.79410    1.000
    C146     C        0.56940    0.38750    0.79580    1.000
    H55      H        0.60680    0.40660    0.79950    1.000
    C147     C        0.56730    0.32510    0.79200    1.000
    C148     C        0.51140    0.29830    0.78520    1.000
    H56      H        0.50900    0.25650    0.77960    1.000
    C149     C        0.45790    0.33280    0.78660    1.000
    C150     C        0.45980    0.39350    0.78830    1.000
    H57      H        0.42450    0.41640    0.78580    1.000
    C151     C        0.62670    0.29210    0.79180    1.000
    C152     C        0.39690    0.30250    0.77790    1.000
    O73      O        0.67240    0.32210    0.80990    1.000
    O74      O        0.62610    0.23670    0.77850    1.000
    O75      O        0.35110    0.33390    0.79230    1.000
    O76      O        0.39480    0.24830    0.75860    1.000
    N19      N        0.52350    0.48580    0.79590    1.000
    Mg20     Mg       0.67839    0.19429    0.26042    1.000
    C153     C        0.48200    0.42200    0.20590    1.000
    C154     C        0.43060    0.38750    0.20420    1.000
    H58      H        0.39320    0.40660    0.20050    1.000
    C155     C        0.43270    0.32510    0.20800    1.000
    C156     C        0.48860    0.29830    0.21480    1.000
    H59      H        0.49100    0.25650    0.22040    1.000
    C157     C        0.54210    0.33280    0.21340    1.000
    C158     C        0.54020    0.39350    0.21170    1.000
    H60      H        0.57550    0.41640    0.21420    1.000
    C159     C        0.37330    0.29210    0.20820    1.000
    C160     C        0.60310    0.30250    0.22210    1.000
    O77      O        0.32760    0.32210    0.19010    1.000
    O78      O        0.37390    0.23670    0.22150    1.000
    O79      O        0.64890    0.33390    0.20770    1.000
    O80      O        0.60520    0.24830    0.24140    1.000
    N20      N        0.47650    0.48580    0.20410    1.000
    Mg21     Mg       0.80571    0.73958    0.67839    1.000
    C161     C        0.57800    0.79410    0.48200    1.000
    C162     C        0.61250    0.79580    0.43060    1.000
    H61      H        0.59340    0.79950    0.39320    1.000
    C163     C        0.67490    0.79200    0.43270    1.000
    C164     C        0.70170    0.78520    0.48860    1.000
    H62      H        0.74350    0.77960    0.49100    1.000
    C165     C        0.66720    0.78660    0.54210    1.000
    C166     C        0.60650    0.78830    0.54020    1.000
    H63      H        0.58360    0.78580    0.57550    1.000
    C167     C        0.70790    0.79180    0.37330    1.000
    C168     C        0.69750    0.77790    0.60310    1.000
    O81      O        0.67790    0.80990    0.32760    1.000
    O82      O        0.76330    0.77850    0.37390    1.000
    O83      O        0.66610    0.79230    0.64890    1.000
    O84      O        0.75170    0.75860    0.60520    1.000
    N21      N        0.51420    0.79590    0.47650    1.000
    Mg22     Mg       0.80571    0.26042    0.32161    1.000
    C169     C        0.57800    0.20590    0.51800    1.000
    C170     C        0.61250    0.20420    0.56940    1.000
    H64      H        0.59340    0.20050    0.60680    1.000
    C171     C        0.67490    0.20800    0.56730    1.000
    C172     C        0.70170    0.21480    0.51140    1.000
    H65      H        0.74350    0.22040    0.50900    1.000
    C173     C        0.66720    0.21340    0.45790    1.000
    C174     C        0.60650    0.21170    0.45980    1.000
    H66      H        0.58360    0.21420    0.42450    1.000
    C175     C        0.70790    0.20820    0.62670    1.000
    C176     C        0.69750    0.22210    0.39690    1.000
    O85      O        0.67790    0.19010    0.67240    1.000
    O86      O        0.76330    0.22150    0.62610    1.000
    O87      O        0.66610    0.20770    0.35110    1.000
    O88      O        0.75170    0.24140    0.39480    1.000
    N22      N        0.51420    0.20410    0.52350    1.000
    Mg23     Mg       0.19429    0.73958    0.32161    1.000
    C177     C        0.42200    0.79410    0.51800    1.000
    C178     C        0.38750    0.79580    0.56940    1.000
    H67      H        0.40660    0.79950    0.60680    1.000
    C179     C        0.32510    0.79200    0.56730    1.000
    C180     C        0.29830    0.78520    0.51140    1.000
    H68      H        0.25650    0.77960    0.50900    1.000
    C181     C        0.33280    0.78660    0.45790    1.000
    C182     C        0.39350    0.78830    0.45980    1.000
    H69      H        0.41640    0.78580    0.42450    1.000
    C183     C        0.29210    0.79180    0.62670    1.000
    C184     C        0.30250    0.77790    0.39690    1.000
    O89      O        0.32210    0.80990    0.67240    1.000
    O90      O        0.23670    0.77850    0.62610    1.000
    O91      O        0.33390    0.79230    0.35110    1.000
    O92      O        0.24830    0.75860    0.39480    1.000
    N23      N        0.48580    0.79590    0.52350    1.000
    Mg24     Mg       0.19429    0.26042    0.67839    1.000
    C185     C        0.42200    0.20590    0.48200    1.000
    C186     C        0.38750    0.20420    0.43060    1.000
    H70      H        0.40660    0.20050    0.39320    1.000
    C187     C        0.32510    0.20800    0.43270    1.000
    C188     C        0.29830    0.21480    0.48860    1.000
    H71      H        0.25650    0.22040    0.49100    1.000
    C189     C        0.33280    0.21340    0.54210    1.000
    C190     C        0.39350    0.21170    0.54020    1.000
    H72      H        0.41640    0.21420    0.57550    1.000
    C191     C        0.29210    0.20820    0.37330    1.000
    C192     C        0.30250    0.22210    0.60310    1.000
    O93      O        0.32210    0.19010    0.32760    1.000
    O94      O        0.23670    0.22150    0.37390    1.000
    O95      O        0.33390    0.20770    0.64890    1.000
    O96      O        0.24830    0.24140    0.60520    1.000
    N24      N        0.48580    0.20410    0.47650    1.000
    O97      O        0.24150    0.24150    0.24150    1.000
    O98      O        0.75850    0.75850    0.24150    1.000
    O99      O        0.75850    0.24150    0.75850    1.000
    O100     O        0.24150    0.75850    0.75850    1.000
    O101     O        0.74150    0.74150    0.74150    1.000
    O102     O        0.25850    0.25850    0.74150    1.000
    O103     O        0.74150    0.25850    0.25850    1.000
    O104     O        0.25850    0.74150    0.25850    1.000
