# CIF file generated by openbabel 3.1.0, see https://openbabel.org
data_I
_chemical_name_common 'image0'
_cell_length_a 8.8294
_cell_length_b 33.7719
_cell_length_c 8.8052
_cell_angle_alpha 90
_cell_angle_beta 107.901
_cell_angle_gamma 90
_space_group_name_H-M_alt 'P 1'
_space_group_name_Hall 'P 1'
loop_
    _symmetry_equiv_pos_as_xyz
    x,y,z
loop_
    _atom_site_label
    _atom_site_type_symbol
    _atom_site_fract_x
    _atom_site_fract_y
    _atom_site_fract_z
    _atom_site_occupancy
    Cu1      Cu       0.74696    0.20406    0.49762    1.000
    Cu2      Cu       0.74245    0.04569    0.50213    1.000
    O1       O        0.88655    0.15532    0.62326    1.000
    O2       O        0.85720    0.09044    0.63137    1.000
    O3       O        0.61820    0.15975    0.37507    1.000
    O4       O        0.61566    0.09430    0.35658    1.000
    O5       O        0.61971    0.20803    0.66086    1.000
    O6       O        0.59860    0.24970    0.84710    1.000
    O7       O        0.87458    0.24621    0.63821    1.000
    O8       O        0.86357    0.28758    0.82979    1.000
    O9       O        0.91069    0.04012    0.38113    1.000
    O10      O        0.09200    0.99824    0.35085    1.000
    O11      O        0.57550    0.04031    0.62238    1.000
    O12      O        0.38242    0.99851    0.62604    1.000
    C1       C        0.81870    0.12392    0.57230    1.000
    C2       C        0.66990    0.12601    0.42030    1.000
    C3       C        0.81450    0.25919    0.73890    1.000
    C4       C        0.66470    0.23731    0.75200    1.000
    C5       C        0.00230    0.01086    0.42240    1.000
    C6       C        0.48800    0.01140    0.57190    1.000
    Cu3      Cu       0.25304    0.70406    0.00238    1.000
    Cu4      Cu       0.25755    0.54569    0.99787    1.000
    O13      O        0.11345    0.65532    0.87674    1.000
    O14      O        0.14280    0.59044    0.86863    1.000
    O15      O        0.38180    0.65975    0.12493    1.000
    O16      O        0.38434    0.59430    0.14342    1.000
    O17      O        0.38029    0.70803    0.83914    1.000
    O18      O        0.40140    0.74970    0.65290    1.000
    O19      O        0.12542    0.74621    0.86179    1.000
    O20      O        0.13643    0.78758    0.67021    1.000
    O21      O        0.08931    0.54012    0.11887    1.000
    O22      O        0.90800    0.49824    0.14915    1.000
    O23      O        0.42450    0.54031    0.87762    1.000
    O24      O        0.61758    0.49851    0.87396    1.000
    C7       C        0.18130    0.62392    0.92770    1.000
    C8       C        0.33010    0.62601    0.07970    1.000
    C9       C        0.18550    0.75919    0.76110    1.000
    C10      C        0.33530    0.73731    0.74800    1.000
    C11      C        0.99770    0.51086    0.07760    1.000
    C12      C        0.51200    0.51140    0.92810    1.000
    Cu5      Cu       0.25304    0.79594    0.50238    1.000
    Cu6      Cu       0.25755    0.95431    0.49787    1.000
    O25      O        0.11345    0.84468    0.37674    1.000
    O26      O        0.14280    0.90956    0.36863    1.000
    O27      O        0.38180    0.84025    0.62493    1.000
    O28      O        0.38434    0.90570    0.64342    1.000
    O29      O        0.38029    0.79197    0.33914    1.000
    O30      O        0.40140    0.75030    0.15290    1.000
    O31      O        0.12542    0.75379    0.36179    1.000
    O32      O        0.13643    0.71242    0.17021    1.000
    O33      O        0.08931    0.95988    0.61887    1.000
    O34      O        0.90800    0.00176    0.64915    1.000
    O35      O        0.42450    0.95969    0.37762    1.000
    O36      O        0.61758    0.00149    0.37396    1.000
    C13      C        0.18130    0.87608    0.42770    1.000
    C14      C        0.33010    0.87399    0.57970    1.000
    C15      C        0.18550    0.74081    0.26110    1.000
    C16      C        0.33530    0.76269    0.24800    1.000
    C17      C        0.99770    0.98914    0.57760    1.000
    C18      C        0.51200    0.98860    0.42810    1.000
    Cu7      Cu       0.74696    0.29594    0.99762    1.000
    Cu8      Cu       0.74245    0.45431    0.00213    1.000
    O37      O        0.88655    0.34468    0.12326    1.000
    O38      O        0.85720    0.40956    0.13137    1.000
    O39      O        0.61820    0.34025    0.87507    1.000
    O40      O        0.61566    0.40570    0.85658    1.000
    O41      O        0.61971    0.29197    0.16086    1.000
    O42      O        0.59860    0.25030    0.34710    1.000
    O43      O        0.87458    0.25379    0.13821    1.000
    O44      O        0.86357    0.21242    0.32979    1.000
    O45      O        0.91069    0.45988    0.88113    1.000
    O46      O        0.09200    0.50176    0.85085    1.000
    O47      O        0.57550    0.45969    0.12238    1.000
    O48      O        0.38242    0.50149    0.12604    1.000
    C19      C        0.81870    0.37608    0.07230    1.000
    C20      C        0.66990    0.37399    0.92030    1.000
    C21      C        0.81450    0.24081    0.23890    1.000
    C22      C        0.66470    0.26269    0.25200    1.000
    C23      C        0.00230    0.48914    0.92240    1.000
    C24      C        0.48800    0.48860    0.07190    1.000
