# CIF file generated by openbabel 3.1.0, see https://openbabel.org
data_I
_chemical_name_common 'image0'
_cell_length_a 9.334
_cell_length_b 29.102
_cell_length_c 7.702
_cell_angle_alpha 90
_cell_angle_beta 108.395
_cell_angle_gamma 90
_space_group_name_H-M_alt 'P 1'
_space_group_name_Hall 'P 1'
loop_
    _symmetry_equiv_pos_as_xyz
    x,y,z
loop_
    _atom_site_label
    _atom_site_type_symbol
    _atom_site_fract_x
    _atom_site_fract_y
    _atom_site_fract_z
    _atom_site_occupancy
    Cu1      Cu       0.66907    0.99836    0.51519    1.000
    C1       C        0.85090    0.08820    0.53170    1.000
    C2       C        0.87310    0.13990    0.53270    1.000
    C3       C        0.75420    0.16910    0.53240    1.000
    H1       H        0.66300    0.15680    0.53510    1.000
    C4       C        0.77110    0.21610    0.52820    1.000
    H2       H        0.68960    0.23480    0.52560    1.000
    C5       C        0.90490    0.23660    0.52770    1.000
    C6       C        0.02210    0.20640    0.52930    1.000
    H3       H        0.11400    0.21870    0.52880    1.000
    C7       C        0.00740    0.15940    0.53150    1.000
    H4       H        0.08830    0.14070    0.53220    1.000
    C8       C        0.92270    0.28630    0.52970    1.000
    C9       C        0.81380    0.31590    0.55960    1.000
    H5       H        0.72550    0.30360    0.57180    1.000
    C10      C        0.83530    0.36290    0.57130    1.000
    H6       H        0.76410    0.38180    0.59660    1.000
    C11      C        0.06160    0.35390    0.50900    1.000
    H7       H        0.14540    0.36730    0.48870    1.000
    C12      C        0.04800    0.30710    0.49960    1.000
    H8       H        0.12140    0.28930    0.47360    1.000
    C13      C        0.99020    0.43150    0.56930    1.000
    H9       H        0.90360    0.44660    0.58810    1.000
    H10      H        0.00380    0.44390    0.45870    1.000
    C14      C        0.13090    0.44170    0.73210    1.000
    N1       N        0.96040    0.38140    0.54580    1.000
    N2       N        0.78800    0.98896    0.34900    1.000
    N3       N        0.76150    0.95940    0.23540    1.000
    N4       N        0.73310    0.92880    0.12440    1.000
    N5       N        0.53510    0.00100    0.67280    1.000
    N6       N        0.57750    0.01990    0.81810    1.000
    N7       N        0.61850    0.03700    0.95860    1.000
    O1       O        0.96110    0.06567    0.51160    1.000
    O2       O        0.73330    0.07247    0.54820    1.000
    O3       O        0.14240    0.48419    0.77380    1.000
    O4       O        0.21770    0.41092    0.80770    1.000
    Cu2      Cu       0.33093    0.49836    0.98481    1.000
    C15      C        0.14910    0.58820    0.96830    1.000
    C16      C        0.12690    0.63990    0.96730    1.000
    C17      C        0.24580    0.66910    0.96760    1.000
    H11      H        0.33700    0.65680    0.96490    1.000
    C18      C        0.22890    0.71610    0.97180    1.000
    H12      H        0.31040    0.73480    0.97440    1.000
    C19      C        0.09510    0.73660    0.97230    1.000
    C20      C        0.97790    0.70640    0.97070    1.000
    H13      H        0.88600    0.71870    0.97120    1.000
    C21      C        0.99260    0.65940    0.96850    1.000
    H14      H        0.91170    0.64070    0.96780    1.000
    C22      C        0.07730    0.78630    0.97030    1.000
    C23      C        0.18620    0.81590    0.94040    1.000
    H15      H        0.27450    0.80360    0.92820    1.000
    C24      C        0.16470    0.86290    0.92870    1.000
    H16      H        0.23590    0.88180    0.90340    1.000
    C25      C        0.93840    0.85390    0.99100    1.000
    H17      H        0.85460    0.86730    0.01130    1.000
    C26      C        0.95200    0.80710    0.00040    1.000
    H18      H        0.87860    0.78930    0.02640    1.000
    C27      C        0.00980    0.93150    0.93070    1.000
    H19      H        0.09640    0.94660    0.91190    1.000
    H20      H        0.99620    0.94390    0.04130    1.000
    C28      C        0.86910    0.94170    0.76790    1.000
    N8       N        0.03960    0.88140    0.95420    1.000
    N9       N        0.21200    0.48896    0.15100    1.000
    N10      N        0.23850    0.45940    0.26460    1.000
    N11      N        0.26690    0.42880    0.37560    1.000
    N12      N        0.46490    0.50100    0.82720    1.000
    N13      N        0.42250    0.51990    0.68190    1.000
    N14      N        0.38150    0.53700    0.54140    1.000
    O5       O        0.03890    0.56567    0.98840    1.000
    O6       O        0.26670    0.57247    0.95180    1.000
    O7       O        0.85760    0.98419    0.72620    1.000
    O8       O        0.78230    0.91092    0.69230    1.000
    Cu3      Cu       0.33093    0.00164    0.48481    1.000
    C29      C        0.14910    0.91180    0.46830    1.000
    C30      C        0.12690    0.86010    0.46730    1.000
    C31      C        0.24580    0.83090    0.46760    1.000
    H21      H        0.33700    0.84320    0.46490    1.000
    C32      C        0.22890    0.78390    0.47180    1.000
    H22      H        0.31040    0.76520    0.47440    1.000
    C33      C        0.09510    0.76340    0.47230    1.000
    C34      C        0.97790    0.79360    0.47070    1.000
    H23      H        0.88600    0.78130    0.47120    1.000
    C35      C        0.99260    0.84060    0.46850    1.000
    H24      H        0.91170    0.85930    0.46780    1.000
    C36      C        0.07730    0.71370    0.47030    1.000
    C37      C        0.18620    0.68410    0.44040    1.000
    H25      H        0.27450    0.69640    0.42820    1.000
    C38      C        0.16470    0.63710    0.42870    1.000
    H26      H        0.23590    0.61820    0.40340    1.000
    C39      C        0.93840    0.64610    0.49100    1.000
    H27      H        0.85460    0.63270    0.51130    1.000
    C40      C        0.95200    0.69290    0.50040    1.000
    H28      H        0.87860    0.71070    0.52640    1.000
    C41      C        0.00980    0.56850    0.43070    1.000
    H29      H        0.09640    0.55340    0.41190    1.000
    H30      H        0.99620    0.55610    0.54130    1.000
    C42      C        0.86910    0.55830    0.26790    1.000
    N15      N        0.03960    0.61860    0.45420    1.000
    N16      N        0.21200    0.01104    0.65100    1.000
    N17      N        0.23850    0.04060    0.76460    1.000
    N18      N        0.26690    0.07120    0.87560    1.000
    N19      N        0.46490    0.99900    0.32720    1.000
    N20      N        0.42250    0.98010    0.18190    1.000
    N21      N        0.38150    0.96300    0.04140    1.000
    O9       O        0.03890    0.93433    0.48840    1.000
    O10      O        0.26670    0.92753    0.45180    1.000
    O11      O        0.85760    0.51581    0.22620    1.000
    O12      O        0.78230    0.58908    0.19230    1.000
    Cu4      Cu       0.66907    0.50164    0.01519    1.000
    C43      C        0.85090    0.41180    0.03170    1.000
    C44      C        0.87310    0.36010    0.03270    1.000
    C45      C        0.75420    0.33090    0.03240    1.000
    H31      H        0.66300    0.34320    0.03510    1.000
    C46      C        0.77110    0.28390    0.02820    1.000
    H32      H        0.68960    0.26520    0.02560    1.000
    C47      C        0.90490    0.26340    0.02770    1.000
    C48      C        0.02210    0.29360    0.02930    1.000
    H33      H        0.11400    0.28130    0.02880    1.000
    C49      C        0.00740    0.34060    0.03150    1.000
    H34      H        0.08830    0.35930    0.03220    1.000
    C50      C        0.92270    0.21370    0.02970    1.000
    C51      C        0.81380    0.18410    0.05960    1.000
    H35      H        0.72550    0.19640    0.07180    1.000
    C52      C        0.83530    0.13710    0.07130    1.000
    H36      H        0.76410    0.11820    0.09660    1.000
    C53      C        0.06160    0.14610    0.00900    1.000
    H37      H        0.14540    0.13270    0.98870    1.000
    C54      C        0.04800    0.19290    0.99960    1.000
    H38      H        0.12140    0.21070    0.97360    1.000
    C55      C        0.99020    0.06850    0.06930    1.000
    H39      H        0.90360    0.05340    0.08810    1.000
    H40      H        0.00380    0.05610    0.95870    1.000
    C56      C        0.13090    0.05830    0.23210    1.000
    N22      N        0.96040    0.11860    0.04580    1.000
    N23      N        0.78800    0.51104    0.84900    1.000
    N24      N        0.76150    0.54060    0.73540    1.000
    N25      N        0.73310    0.57120    0.62440    1.000
    N26      N        0.53510    0.49900    0.17280    1.000
    N27      N        0.57750    0.48010    0.31810    1.000
    N28      N        0.61850    0.46300    0.45860    1.000
    O13      O        0.96110    0.43433    0.01160    1.000
    O14      O        0.73330    0.42753    0.04820    1.000
    O15      O        0.14240    0.01581    0.27380    1.000
    O16      O        0.21770    0.08908    0.30770    1.000
    Cu5      Cu       0.00000    0.00000    0.50000    1.000
    Cu6      Cu       0.00000    0.50000    0.00000    1.000
