# CIF file generated by openbabel 3.1.0, see https://openbabel.org
data_I
_chemical_name_common 'UWELIS_clean'
_cell_length_a 13.265
_cell_length_b 13.983
_cell_length_c 14.189
_cell_angle_alpha 112.066
_cell_angle_beta 90
_cell_angle_gamma 90
_space_group_name_H-M_alt 'P 1'
_space_group_name_Hall 'P 1'
loop_
    _symmetry_equiv_pos_as_xyz
    x,y,z
loop_
    _atom_site_label
    _atom_site_type_symbol
    _atom_site_fract_x
    _atom_site_fract_y
    _atom_site_fract_z
    _atom_site_occupancy
    Zn1      Zn       0.55314    0.40033    0.94897    1.000
    Zn2      Zn       0.05314    0.59967    0.55103    1.000
    Zn3      Zn       0.44686    0.59967    0.05103    1.000
    Zn4      Zn       0.94686    0.40033    0.44897    1.000
    H1       H        0.25770    0.72250    0.08780    1.000
    H2       H        0.20590    0.89490    0.15380    1.000
    H3       H        0.49320    0.98600    0.21510    1.000
    H4       H        0.54250    0.81430    0.15950    1.000
    H5       H        0.43990    0.25680    0.13550    1.000
    H6       H        0.28990    0.51780    0.29080    1.000
    H7       H        0.23820    0.26010    0.34790    1.000
    H8       H        0.42950    0.11770    0.19920    1.000
    H9       H        0.75770    0.27750    0.41220    1.000
    H10      H        0.70590    0.10510    0.34620    1.000
    H11      H        0.99320    0.01400    0.28490    1.000
    H12      H        0.04250    0.18570    0.34050    1.000
    H13      H        0.93990    0.74320    0.36450    1.000
    H14      H        0.78990    0.48220    0.20920    1.000
    H15      H        0.73820    0.73990    0.15210    1.000
    H16      H        0.92950    0.88230    0.30080    1.000
    H17      H        0.74230    0.27750    0.91220    1.000
    H18      H        0.79410    0.10510    0.84620    1.000
    H19      H        0.50680    0.01400    0.78490    1.000
    H20      H        0.45750    0.18570    0.84050    1.000
    H21      H        0.56010    0.74320    0.86450    1.000
    H22      H        0.71010    0.48220    0.70920    1.000
    H23      H        0.76180    0.73990    0.65210    1.000
    H24      H        0.57050    0.88230    0.80080    1.000
    H25      H        0.24230    0.72250    0.58780    1.000
    H26      H        0.29410    0.89490    0.65380    1.000
    H27      H        0.00680    0.98600    0.71510    1.000
    H28      H        0.95750    0.81430    0.65950    1.000
    H29      H        0.06010    0.25680    0.63550    1.000
    H30      H        0.21010    0.51780    0.79080    1.000
    H31      H        0.26180    0.26010    0.84790    1.000
    H32      H        0.07050    0.11770    0.69920    1.000
    C1       C        0.30470    0.77510    0.11520    1.000
    C2       C        0.27390    0.87860    0.15320    1.000
    C3       C        0.34400    0.95530    0.18940    1.000
    C4       C        0.44580    0.93340    0.19140    1.000
    C5       C        0.47480    0.83050    0.15690    1.000
    C6       C        0.30470    0.06560    0.22540    1.000
    C7       C        0.34450    0.24180    0.23830    1.000
    C8       C        0.39330    0.29250    0.18530    1.000
    C9       C        0.37480    0.39590    0.20450    1.000
    C10      C        0.30310    0.44870    0.27780    1.000
    C11      C        0.25190    0.39960    0.33080    1.000
    C12      C        0.27210    0.29390    0.31200    1.000
    C13      C        0.42370    0.44380    0.13730    1.000
    C14      C        0.16700    0.44810    0.40210    1.000
    C15      C        0.80470    0.22490    0.38480    1.000
    C16      C        0.77390    0.12140    0.34680    1.000
    C17      C        0.84400    0.04470    0.31060    1.000
    C18      C        0.94580    0.06660    0.30860    1.000
    C19      C        0.97480    0.16950    0.34310    1.000
    C20      C        0.80470    0.93440    0.27460    1.000
    C21      C        0.84450    0.75820    0.26170    1.000
    C22      C        0.89330    0.70750    0.31470    1.000
    C23      C        0.87480    0.60410    0.29550    1.000
    C24      C        0.80310    0.55130    0.22220    1.000
    C25      C        0.75190    0.60040    0.16920    1.000
    C26      C        0.77210    0.70610    0.18800    1.000
    C27      C        0.92370    0.55620    0.36270    1.000
    C28      C        0.66700    0.55190    0.09790    1.000
    C29      C        0.69530    0.22490    0.88480    1.000
    C30      C        0.72610    0.12140    0.84680    1.000
    C31      C        0.65600    0.04470    0.81060    1.000
    C32      C        0.55420    0.06660    0.80860    1.000
    C33      C        0.52520    0.16950    0.84310    1.000
    C34      C        0.69530    0.93440    0.77460    1.000
    C35      C        0.65550    0.75820    0.76170    1.000
    C36      C        0.60670    0.70750    0.81470    1.000
    C37      C        0.62520    0.60410    0.79550    1.000
    C38      C        0.69690    0.55130    0.72220    1.000
    C39      C        0.74810    0.60040    0.66920    1.000
    C40      C        0.72790    0.70610    0.68800    1.000
    C41      C        0.57630    0.55620    0.86270    1.000
    C42      C        0.83300    0.55190    0.59790    1.000
    C43      C        0.19530    0.77510    0.61520    1.000
    C44      C        0.22610    0.87860    0.65320    1.000
    C45      C        0.15600    0.95530    0.68940    1.000
    C46      C        0.05420    0.93340    0.69140    1.000
    C47      C        0.02520    0.83050    0.65690    1.000
    C48      C        0.19530    0.06560    0.72540    1.000
    C49      C        0.15550    0.24180    0.73830    1.000
    C50      C        0.10670    0.29250    0.68530    1.000
    C51      C        0.12520    0.39590    0.70450    1.000
    C52      C        0.19690    0.44870    0.77780    1.000
    C53      C        0.24810    0.39960    0.83080    1.000
    C54      C        0.22790    0.29390    0.81200    1.000
    C55      C        0.07630    0.44380    0.63730    1.000
    C56      C        0.33300    0.44810    0.90210    1.000
    N1       N        0.40590    0.75188    0.11883    1.000
    N2       N        0.36876    0.13713    0.21792    1.000
    N3       N        0.90590    0.24812    0.38117    1.000
    N4       N        0.86876    0.86287    0.28208    1.000
    N5       N        0.59410    0.24812    0.88117    1.000
    N6       N        0.63124    0.86287    0.78208    1.000
    N7       N        0.09410    0.75188    0.61883    1.000
    N8       N        0.13124    0.13713    0.71792    1.000
    O1       O        0.21672    0.08200    0.25248    1.000
    O2       O        0.48672    0.39067    0.07609    1.000
    O3       O        0.39724    0.53440    0.14920    1.000
    O4       O        0.17653    0.54068    0.46151    1.000
    O5       O        0.09174    0.39407    0.39768    1.000
    O6       O        0.71672    0.91800    0.24752    1.000
    O7       O        0.98672    0.60933    0.42391    1.000
    O8       O        0.89724    0.46560    0.35080    1.000
    O9       O        0.67653    0.45932    0.03849    1.000
    O10      O        0.59174    0.60593    0.10232    1.000
    O11      O        0.78328    0.91800    0.74752    1.000
    O12      O        0.51328    0.60933    0.92391    1.000
    O13      O        0.60276    0.46560    0.85080    1.000
    O14      O        0.82347    0.45932    0.53849    1.000
    O15      O        0.90826    0.60593    0.60232    1.000
    O16      O        0.28328    0.08200    0.75248    1.000
    O17      O        0.01328    0.39067    0.57609    1.000
    O18      O        0.10276    0.53440    0.64920    1.000
    O19      O        0.32347    0.54068    0.96151    1.000
    O20      O        0.40826    0.39407    0.89768    1.000
