# CIF file generated by openbabel 3.1.0, see https://openbabel.org
data_I
_chemical_name_common 'image0'
_cell_length_a 40.077
_cell_length_b 21.789
_cell_length_c 9.1437
_cell_angle_alpha 90
_cell_angle_beta 101.28
_cell_angle_gamma 90
_space_group_name_H-M_alt 'P 1'
_space_group_name_Hall 'P 1'
loop_
    _symmetry_equiv_pos_as_xyz
    x,y,z
loop_
    _atom_site_label
    _atom_site_type_symbol
    _atom_site_fract_x
    _atom_site_fract_y
    _atom_site_fract_z
    _atom_site_occupancy
    Pb1      Pb       0.33043    0.00836    0.06243    1.000
    K1       K        0.29095    0.87030    0.84850    1.000
    O1       O        0.35920    0.94680    0.26800    1.000
    O2       O        0.34030    0.87450    0.10700    1.000
    O3       O        0.36670    0.78920    0.29140    1.000
    O4       O        0.21390    0.48580    0.79650    1.000
    O5       O        0.23620    0.54970    0.97130    1.000
    O6       O        0.29460    0.54980    0.88350    1.000
    O7       O        0.34870    0.07610    0.26110    1.000
    O8       O        0.39050    0.07900    0.14480    1.000
    O9       O        0.42120    0.16450    0.33400    1.000
    C1       C        0.36000    0.89480    0.21800    1.000
    C2       C        0.37950    0.84980    0.32540    1.000
    H1       H        0.40340    0.85130    0.31960    1.000
    H2       H        0.37750    0.86050    0.42620    1.000
    C3       C        0.38190    0.74200    0.38790    1.000
    C4       C        0.40650    0.75120    0.51400    1.000
    H3       H        0.41510    0.79020    0.53990    1.000
    C5       C        0.41810    0.70060    0.60120    1.000
    H4       H        0.43430    0.70710    0.68740    1.000
    C6       C        0.40720    0.64080    0.56870    1.000
    C7       C        0.38270    0.63460    0.43890    1.000
    H5       H        0.37440    0.59560    0.41130    1.000
    C8       C        0.36990    0.68370    0.34830    1.000
    H6       H        0.35360    0.67750    0.26240    1.000
    C9       C        0.23780    0.51610    0.86530    1.000
    C10      C        0.26990    0.50810    0.80580    1.000
    H7       H        0.26560    0.51670    0.69970    1.000
    H8       H        0.27800    0.46620    0.82140    1.000
    C11      C        0.32540    0.55250    0.83170    1.000
    C12      C        0.33450    0.51190    0.73180    1.000
    H9       H        0.32060    0.47900    0.69520    1.000
    C13      C        0.36540    0.52120    0.68700    1.000
    H10      H        0.37210    0.49310    0.62180    1.000
    C14      C        0.38650    0.57030    0.73490    1.000
    C15      C        0.37580    0.60980    0.83590    1.000
    H11      H        0.38960    0.64290    0.87180    1.000
    C16      C        0.34550    0.60220    0.88590    1.000
    H12      H        0.33900    0.62950    0.95330    1.000
    C17      C        0.41700    0.58590    0.66640    1.000
    C18      C        0.44740    0.59930    0.79370    1.000
    H13      H        0.46610    0.61430    0.75270    1.000
    H14      H        0.45400    0.56230    0.84870    1.000
    H15      H        0.44100    0.62970    0.85910    1.000
    C19      C        0.42750    0.53180    0.57770    1.000
    H16      H        0.41040    0.52520    0.48980    1.000
    H17      H        0.42980    0.49550    0.63840    1.000
    H18      H        0.44880    0.54090    0.54950    1.000
    C20      C        0.37500    0.09900    0.24000    1.000
    C21      C        0.38720    0.14940    0.34500    1.000
    H19      H        0.37280    0.18530    0.32310    1.000
    H20      H        0.38650    0.13580    0.44520    1.000
    C22      C        0.43570    0.20640    0.44860    1.000
    C23      C        0.42040    0.24290    0.54050    1.000
    H21      H        0.39720    0.24030    0.53930    1.000
    C24      C        0.44130    0.28380    0.63540    1.000
    H22      H        0.43130    0.30970    0.69550    1.000
    C25      C        0.47620    0.28750    0.64380    1.000
    C26      C        0.49030    0.25060    0.54730    1.000
    H23      H        0.51370    0.25190    0.55110    1.000
    C27      C        0.47040    0.21210    0.44590    1.000
    H24      H        0.47990    0.19030    0.37680    1.000
    C28      C        0.48060    0.36920    0.84080    1.000
    H25      H        0.46670    0.34420    0.89160    1.000
    H26      H        0.46640    0.39710    0.77500    1.000
    H27      H        0.49650    0.39200    0.91260    1.000
    O10      O        0.37970    0.93240    0.17700    1.000
    O11      O        0.33020    0.88900    0.16600    1.000
    O12      O        0.37200    0.08400    0.23000    1.000
    O13      O        0.32610    0.13790    0.16000    1.000
    O14      O        0.40860    0.16700    0.38300    1.000
    C29      C        0.35400    0.13000    0.23500    1.000
    C30      C        0.37300    0.17800    0.33700    1.000
    H28      H        0.36970    0.21710    0.28750    1.000
    H29      H        0.36300    0.18010    0.42560    1.000
    Pb2      Pb       0.83043    0.50836    0.06243    1.000
    K2       K        0.79095    0.37030    0.84850    1.000
    O15      O        0.85920    0.44680    0.26800    1.000
    O16      O        0.84030    0.37450    0.10700    1.000
    O17      O        0.86670    0.28920    0.29140    1.000
    O18      O        0.71390    0.98580    0.79650    1.000
    O19      O        0.73620    0.04970    0.97130    1.000
    O20      O        0.79460    0.04980    0.88350    1.000
    O21      O        0.84870    0.57610    0.26110    1.000
    O22      O        0.89050    0.57900    0.14480    1.000
    O23      O        0.92120    0.66450    0.33400    1.000
    C31      C        0.86000    0.39480    0.21800    1.000
    C32      C        0.87950    0.34980    0.32540    1.000
    H30      H        0.90340    0.35130    0.31960    1.000
    H31      H        0.87750    0.36050    0.42620    1.000
    C33      C        0.88190    0.24200    0.38790    1.000
    C34      C        0.90650    0.25120    0.51400    1.000
    H32      H        0.91510    0.29020    0.53990    1.000
    C35      C        0.91810    0.20060    0.60120    1.000
    H33      H        0.93430    0.20710    0.68740    1.000
    C36      C        0.90720    0.14080    0.56870    1.000
    C37      C        0.88270    0.13460    0.43890    1.000
    H34      H        0.87440    0.09560    0.41130    1.000
    C38      C        0.86990    0.18370    0.34830    1.000
    H35      H        0.85360    0.17750    0.26240    1.000
    C39      C        0.73780    0.01610    0.86530    1.000
    C40      C        0.76990    0.00810    0.80580    1.000
    H36      H        0.76560    0.01670    0.69970    1.000
    H37      H        0.77800    0.96620    0.82140    1.000
    C41      C        0.82540    0.05250    0.83170    1.000
    C42      C        0.83450    0.01190    0.73180    1.000
    H38      H        0.82060    0.97900    0.69520    1.000
    C43      C        0.86540    0.02120    0.68700    1.000
    H39      H        0.87210    0.99310    0.62180    1.000
    C44      C        0.88650    0.07030    0.73490    1.000
    C45      C        0.87580    0.10980    0.83590    1.000
    H40      H        0.88960    0.14290    0.87180    1.000
    C46      C        0.84550    0.10220    0.88590    1.000
    H41      H        0.83900    0.12950    0.95330    1.000
    C47      C        0.91700    0.08590    0.66640    1.000
    C48      C        0.94740    0.09930    0.79370    1.000
    H42      H        0.96610    0.11430    0.75270    1.000
    H43      H        0.95400    0.06230    0.84870    1.000
    H44      H        0.94100    0.12970    0.85910    1.000
    C49      C        0.92750    0.03180    0.57770    1.000
    H45      H        0.91040    0.02520    0.48980    1.000
    H46      H        0.92980    0.99550    0.63840    1.000
    H47      H        0.94880    0.04090    0.54950    1.000
    C50      C        0.87500    0.59900    0.24000    1.000
    C51      C        0.88720    0.64940    0.34500    1.000
    H48      H        0.87280    0.68530    0.32310    1.000
    H49      H        0.88650    0.63580    0.44520    1.000
    C52      C        0.93570    0.70640    0.44860    1.000
    C53      C        0.92040    0.74290    0.54050    1.000
    H50      H        0.89720    0.74030    0.53930    1.000
    C54      C        0.94130    0.78380    0.63540    1.000
    H51      H        0.93130    0.80970    0.69550    1.000
    C55      C        0.97620    0.78750    0.64380    1.000
    C56      C        0.99030    0.75060    0.54730    1.000
    H52      H        0.01370    0.75190    0.55110    1.000
    C57      C        0.97040    0.71210    0.44590    1.000
    H53      H        0.97990    0.69030    0.37680    1.000
    C58      C        0.98060    0.86920    0.84080    1.000
    H54      H        0.96670    0.84420    0.89160    1.000
    H55      H        0.96640    0.89710    0.77500    1.000
    H56      H        0.99650    0.89200    0.91260    1.000
    O24      O        0.87970    0.43240    0.17700    1.000
    O25      O        0.83020    0.38900    0.16600    1.000
    O26      O        0.87200    0.58400    0.23000    1.000
    O27      O        0.82610    0.63790    0.16000    1.000
    O28      O        0.90860    0.66700    0.38300    1.000
    C59      C        0.85400    0.63000    0.23500    1.000
    C60      C        0.87300    0.67800    0.33700    1.000
    H57      H        0.86970    0.71710    0.28750    1.000
    H58      H        0.86300    0.68010    0.42560    1.000
    Pb3      Pb       0.66957    0.00836    0.43757    1.000
    K3       K        0.70905    0.87030    0.65150    1.000
    O29      O        0.64080    0.94680    0.23200    1.000
    O30      O        0.65970    0.87450    0.39300    1.000
    O31      O        0.63330    0.78920    0.20860    1.000
    O32      O        0.78610    0.48580    0.70350    1.000
    O33      O        0.76380    0.54970    0.52870    1.000
    O34      O        0.70540    0.54980    0.61650    1.000
    O35      O        0.65130    0.07610    0.23890    1.000
    O36      O        0.60950    0.07900    0.35520    1.000
    O37      O        0.57880    0.16450    0.16600    1.000
    C61      C        0.64000    0.89480    0.28200    1.000
    C62      C        0.62050    0.84980    0.17460    1.000
    H59      H        0.59660    0.85130    0.18040    1.000
    H60      H        0.62250    0.86050    0.07380    1.000
    C63      C        0.61810    0.74200    0.11210    1.000
    C64      C        0.59350    0.75120    0.98600    1.000
    H61      H        0.58490    0.79020    0.96010    1.000
    C65      C        0.58190    0.70060    0.89880    1.000
    H62      H        0.56570    0.70710    0.81260    1.000
    C66      C        0.59280    0.64080    0.93130    1.000
    C67      C        0.61730    0.63460    0.06110    1.000
    H63      H        0.62560    0.59560    0.08870    1.000
    C68      C        0.63010    0.68370    0.15170    1.000
    H64      H        0.64640    0.67750    0.23760    1.000
    C69      C        0.76220    0.51610    0.63470    1.000
    C70      C        0.73010    0.50810    0.69420    1.000
    H65      H        0.73440    0.51670    0.80030    1.000
    H66      H        0.72200    0.46620    0.67860    1.000
    C71      C        0.67460    0.55250    0.66830    1.000
    C72      C        0.66550    0.51190    0.76820    1.000
    H67      H        0.67940    0.47900    0.80480    1.000
    C73      C        0.63460    0.52120    0.81300    1.000
    H68      H        0.62790    0.49310    0.87820    1.000
    C74      C        0.61350    0.57030    0.76510    1.000
    C75      C        0.62420    0.60980    0.66410    1.000
    H69      H        0.61040    0.64290    0.62820    1.000
    C76      C        0.65450    0.60220    0.61410    1.000
    H70      H        0.66100    0.62950    0.54670    1.000
    C77      C        0.58300    0.58590    0.83360    1.000
    C78      C        0.55260    0.59930    0.70630    1.000
    H71      H        0.53390    0.61430    0.74730    1.000
    H72      H        0.54600    0.56230    0.65130    1.000
    H73      H        0.55900    0.62970    0.64090    1.000
    C79      C        0.57250    0.53180    0.92230    1.000
    H74      H        0.58960    0.52520    0.01020    1.000
    H75      H        0.57020    0.49550    0.86160    1.000
    H76      H        0.55120    0.54090    0.95050    1.000
    C80      C        0.62500    0.09900    0.26000    1.000
    C81      C        0.61280    0.14940    0.15500    1.000
    H77      H        0.62720    0.18530    0.17690    1.000
    H78      H        0.61350    0.13580    0.05480    1.000
    C82      C        0.56430    0.20640    0.05140    1.000
    C83      C        0.57960    0.24290    0.95950    1.000
    H79      H        0.60280    0.24030    0.96070    1.000
    C84      C        0.55870    0.28380    0.86460    1.000
    H80      H        0.56870    0.30970    0.80450    1.000
    C85      C        0.52380    0.28750    0.85620    1.000
    C86      C        0.50970    0.25060    0.95270    1.000
    H81      H        0.48630    0.25190    0.94890    1.000
    C87      C        0.52960    0.21210    0.05410    1.000
    H82      H        0.52010    0.19030    0.12320    1.000
    C88      C        0.51940    0.36920    0.65920    1.000
    H83      H        0.53330    0.34420    0.60840    1.000
    H84      H        0.53360    0.39710    0.72500    1.000
    H85      H        0.50350    0.39200    0.58740    1.000
    O38      O        0.62030    0.93240    0.32300    1.000
    O39      O        0.66980    0.88900    0.33400    1.000
    O40      O        0.62800    0.08400    0.27000    1.000
    O41      O        0.67390    0.13790    0.34000    1.000
    O42      O        0.59140    0.16700    0.11700    1.000
    C89      C        0.64600    0.13000    0.26500    1.000
    C90      C        0.62700    0.17800    0.16300    1.000
    H86      H        0.63030    0.21710    0.21250    1.000
    H87      H        0.63700    0.18010    0.07440    1.000
    Pb4      Pb       0.16957    0.50836    0.43757    1.000
    K4       K        0.20905    0.37030    0.65150    1.000
    O43      O        0.14080    0.44680    0.23200    1.000
    O44      O        0.15970    0.37450    0.39300    1.000
    O45      O        0.13330    0.28920    0.20860    1.000
    O46      O        0.28610    0.98580    0.70350    1.000
    O47      O        0.26380    0.04970    0.52870    1.000
    O48      O        0.20540    0.04980    0.61650    1.000
    O49      O        0.15130    0.57610    0.23890    1.000
    O50      O        0.10950    0.57900    0.35520    1.000
    O51      O        0.07880    0.66450    0.16600    1.000
    C91      C        0.14000    0.39480    0.28200    1.000
    C92      C        0.12050    0.34980    0.17460    1.000
    H88      H        0.09660    0.35130    0.18040    1.000
    H89      H        0.12250    0.36050    0.07380    1.000
    C93      C        0.11810    0.24200    0.11210    1.000
    C94      C        0.09350    0.25120    0.98600    1.000
    H90      H        0.08490    0.29020    0.96010    1.000
    C95      C        0.08190    0.20060    0.89880    1.000
    H91      H        0.06570    0.20710    0.81260    1.000
    C96      C        0.09280    0.14080    0.93130    1.000
    C97      C        0.11730    0.13460    0.06110    1.000
    H92      H        0.12560    0.09560    0.08870    1.000
    C98      C        0.13010    0.18370    0.15170    1.000
    H93      H        0.14640    0.17750    0.23760    1.000
    C99      C        0.26220    0.01610    0.63470    1.000
    C100     C        0.23010    0.00810    0.69420    1.000
    H94      H        0.23440    0.01670    0.80030    1.000
    H95      H        0.22200    0.96620    0.67860    1.000
    C101     C        0.17460    0.05250    0.66830    1.000
    C102     C        0.16550    0.01190    0.76820    1.000
    H96      H        0.17940    0.97900    0.80480    1.000
    C103     C        0.13460    0.02120    0.81300    1.000
    H97      H        0.12790    0.99310    0.87820    1.000
    C104     C        0.11350    0.07030    0.76510    1.000
    C105     C        0.12420    0.10980    0.66410    1.000
    H98      H        0.11040    0.14290    0.62820    1.000
    C106     C        0.15450    0.10220    0.61410    1.000
    H99      H        0.16100    0.12950    0.54670    1.000
    C107     C        0.08300    0.08590    0.83360    1.000
    C108     C        0.05260    0.09930    0.70630    1.000
    H100     H        0.03390    0.11430    0.74730    1.000
    H101     H        0.04600    0.06230    0.65130    1.000
    H102     H        0.05900    0.12970    0.64090    1.000
    C109     C        0.07250    0.03180    0.92230    1.000
    H103     H        0.08960    0.02520    0.01020    1.000
    H104     H        0.07020    0.99550    0.86160    1.000
    H105     H        0.05120    0.04090    0.95050    1.000
    C110     C        0.12500    0.59900    0.26000    1.000
    C111     C        0.11280    0.64940    0.15500    1.000
    H106     H        0.12720    0.68530    0.17690    1.000
    H107     H        0.11350    0.63580    0.05480    1.000
    C112     C        0.06430    0.70640    0.05140    1.000
    C113     C        0.07960    0.74290    0.95950    1.000
    H108     H        0.10280    0.74030    0.96070    1.000
    C114     C        0.05870    0.78380    0.86460    1.000
    H109     H        0.06870    0.80970    0.80450    1.000
    C115     C        0.02380    0.78750    0.85620    1.000
    C116     C        0.00970    0.75060    0.95270    1.000
    H110     H        0.98630    0.75190    0.94890    1.000
    C117     C        0.02960    0.71210    0.05410    1.000
    H111     H        0.02010    0.69030    0.12320    1.000
    C118     C        0.01940    0.86920    0.65920    1.000
    H112     H        0.03330    0.84420    0.60840    1.000
    H113     H        0.03360    0.89710    0.72500    1.000
    H114     H        0.00350    0.89200    0.58740    1.000
    O52      O        0.12030    0.43240    0.32300    1.000
    O53      O        0.16980    0.38900    0.33400    1.000
    O54      O        0.12800    0.58400    0.27000    1.000
    O55      O        0.17390    0.63790    0.34000    1.000
    O56      O        0.09140    0.66700    0.11700    1.000
    C119     C        0.14600    0.63000    0.26500    1.000
    C120     C        0.12700    0.67800    0.16300    1.000
    H115     H        0.13030    0.71710    0.21250    1.000
    H116     H        0.13700    0.68010    0.07440    1.000
    Pb5      Pb       0.66957    0.99164    0.93757    1.000
    K5       K        0.70905    0.12970    0.15150    1.000
    O57      O        0.64080    0.05320    0.73200    1.000
    O58      O        0.65970    0.12550    0.89300    1.000
    O59      O        0.63330    0.21080    0.70860    1.000
    O60      O        0.78610    0.51420    0.20350    1.000
    O61      O        0.76380    0.45030    0.02870    1.000
    O62      O        0.70540    0.45020    0.11650    1.000
    O63      O        0.65130    0.92390    0.73890    1.000
    O64      O        0.60950    0.92100    0.85520    1.000
    O65      O        0.57880    0.83550    0.66600    1.000
    C121     C        0.64000    0.10520    0.78200    1.000
    C122     C        0.62050    0.15020    0.67460    1.000
    H117     H        0.59660    0.14870    0.68040    1.000
    H118     H        0.62250    0.13950    0.57380    1.000
    C123     C        0.61810    0.25800    0.61210    1.000
    C124     C        0.59350    0.24880    0.48600    1.000
    H119     H        0.58490    0.20980    0.46010    1.000
    C125     C        0.58190    0.29940    0.39880    1.000
    H120     H        0.56570    0.29290    0.31260    1.000
    C126     C        0.59280    0.35920    0.43130    1.000
    C127     C        0.61730    0.36540    0.56110    1.000
    H121     H        0.62560    0.40440    0.58870    1.000
    C128     C        0.63010    0.31630    0.65170    1.000
    H122     H        0.64640    0.32250    0.73760    1.000
    C129     C        0.76220    0.48390    0.13470    1.000
    C130     C        0.73010    0.49190    0.19420    1.000
    H123     H        0.73440    0.48330    0.30030    1.000
    H124     H        0.72200    0.53380    0.17860    1.000
    C131     C        0.67460    0.44750    0.16830    1.000
    C132     C        0.66550    0.48810    0.26820    1.000
    H125     H        0.67940    0.52100    0.30480    1.000
    C133     C        0.63460    0.47880    0.31300    1.000
    H126     H        0.62790    0.50690    0.37820    1.000
    C134     C        0.61350    0.42970    0.26510    1.000
    C135     C        0.62420    0.39020    0.16410    1.000
    H127     H        0.61040    0.35710    0.12820    1.000
    C136     C        0.65450    0.39780    0.11410    1.000
    H128     H        0.66100    0.37050    0.04670    1.000
    C137     C        0.58300    0.41410    0.33360    1.000
    C138     C        0.55260    0.40070    0.20630    1.000
    H129     H        0.53390    0.38570    0.24730    1.000
    H130     H        0.54600    0.43770    0.15130    1.000
    H131     H        0.55900    0.37030    0.14090    1.000
    C139     C        0.57250    0.46820    0.42230    1.000
    H132     H        0.58960    0.47480    0.51020    1.000
    H133     H        0.57020    0.50450    0.36160    1.000
    H134     H        0.55120    0.45910    0.45050    1.000
    C140     C        0.62500    0.90100    0.76000    1.000
    C141     C        0.61280    0.85060    0.65500    1.000
    H135     H        0.62720    0.81470    0.67690    1.000
    H136     H        0.61350    0.86420    0.55480    1.000
    C142     C        0.56430    0.79360    0.55140    1.000
    C143     C        0.57960    0.75710    0.45950    1.000
    H137     H        0.60280    0.75970    0.46070    1.000
    C144     C        0.55870    0.71620    0.36460    1.000
    H138     H        0.56870    0.69030    0.30450    1.000
    C145     C        0.52380    0.71250    0.35620    1.000
    C146     C        0.50970    0.74940    0.45270    1.000
    H139     H        0.48630    0.74810    0.44890    1.000
    C147     C        0.52960    0.78790    0.55410    1.000
    H140     H        0.52010    0.80970    0.62320    1.000
    C148     C        0.51940    0.63080    0.15920    1.000
    H141     H        0.53330    0.65580    0.10840    1.000
    H142     H        0.53360    0.60290    0.22500    1.000
    H143     H        0.50350    0.60800    0.08740    1.000
    O66      O        0.62030    0.06760    0.82300    1.000
    O67      O        0.66980    0.11100    0.83400    1.000
    O68      O        0.62800    0.91600    0.77000    1.000
    O69      O        0.67390    0.86210    0.84000    1.000
    O70      O        0.59140    0.83300    0.61700    1.000
    C149     C        0.64600    0.87000    0.76500    1.000
    C150     C        0.62700    0.82200    0.66300    1.000
    H144     H        0.63030    0.78290    0.71250    1.000
    H145     H        0.63700    0.81990    0.57440    1.000
    Pb6      Pb       0.16957    0.49164    0.93757    1.000
    K6       K        0.20905    0.62970    0.15150    1.000
    O71      O        0.14080    0.55320    0.73200    1.000
    O72      O        0.15970    0.62550    0.89300    1.000
    O73      O        0.13330    0.71080    0.70860    1.000
    O74      O        0.28610    0.01420    0.20350    1.000
    O75      O        0.26380    0.95030    0.02870    1.000
    O76      O        0.20540    0.95020    0.11650    1.000
    O77      O        0.15130    0.42390    0.73890    1.000
    O78      O        0.10950    0.42100    0.85520    1.000
    O79      O        0.07880    0.33550    0.66600    1.000
    C151     C        0.14000    0.60520    0.78200    1.000
    C152     C        0.12050    0.65020    0.67460    1.000
    H146     H        0.09660    0.64870    0.68040    1.000
    H147     H        0.12250    0.63950    0.57380    1.000
    C153     C        0.11810    0.75800    0.61210    1.000
    C154     C        0.09350    0.74880    0.48600    1.000
    H148     H        0.08490    0.70980    0.46010    1.000
    C155     C        0.08190    0.79940    0.39880    1.000
    H149     H        0.06570    0.79290    0.31260    1.000
    C156     C        0.09280    0.85920    0.43130    1.000
    C157     C        0.11730    0.86540    0.56110    1.000
    H150     H        0.12560    0.90440    0.58870    1.000
    C158     C        0.13010    0.81630    0.65170    1.000
    H151     H        0.14640    0.82250    0.73760    1.000
    C159     C        0.26220    0.98390    0.13470    1.000
    C160     C        0.23010    0.99190    0.19420    1.000
    H152     H        0.23440    0.98330    0.30030    1.000
    H153     H        0.22200    0.03380    0.17860    1.000
    C161     C        0.17460    0.94750    0.16830    1.000
    C162     C        0.16550    0.98810    0.26820    1.000
    H154     H        0.17940    0.02100    0.30480    1.000
    C163     C        0.13460    0.97880    0.31300    1.000
    H155     H        0.12790    0.00690    0.37820    1.000
    C164     C        0.11350    0.92970    0.26510    1.000
    C165     C        0.12420    0.89020    0.16410    1.000
    H156     H        0.11040    0.85710    0.12820    1.000
    C166     C        0.15450    0.89780    0.11410    1.000
    H157     H        0.16100    0.87050    0.04670    1.000
    C167     C        0.08300    0.91410    0.33360    1.000
    C168     C        0.05260    0.90070    0.20630    1.000
    H158     H        0.03390    0.88570    0.24730    1.000
    H159     H        0.04600    0.93770    0.15130    1.000
    H160     H        0.05900    0.87030    0.14090    1.000
    C169     C        0.07250    0.96820    0.42230    1.000
    H161     H        0.08960    0.97480    0.51020    1.000
    H162     H        0.07020    0.00450    0.36160    1.000
    H163     H        0.05120    0.95910    0.45050    1.000
    C170     C        0.12500    0.40100    0.76000    1.000
    C171     C        0.11280    0.35060    0.65500    1.000
    H164     H        0.12720    0.31470    0.67690    1.000
    H165     H        0.11350    0.36420    0.55480    1.000
    C172     C        0.06430    0.29360    0.55140    1.000
    C173     C        0.07960    0.25710    0.45950    1.000
    H166     H        0.10280    0.25970    0.46070    1.000
    C174     C        0.05870    0.21620    0.36460    1.000
    H167     H        0.06870    0.19030    0.30450    1.000
    C175     C        0.02380    0.21250    0.35620    1.000
    C176     C        0.00970    0.24940    0.45270    1.000
    H168     H        0.98630    0.24810    0.44890    1.000
    C177     C        0.02960    0.28790    0.55410    1.000
    H169     H        0.02010    0.30970    0.62320    1.000
    C178     C        0.01940    0.13080    0.15920    1.000
    H170     H        0.03330    0.15580    0.10840    1.000
    H171     H        0.03360    0.10290    0.22500    1.000
    H172     H        0.00350    0.10800    0.08740    1.000
    O80      O        0.12030    0.56760    0.82300    1.000
    O81      O        0.16980    0.61100    0.83400    1.000
    O82      O        0.12800    0.41600    0.77000    1.000
    O83      O        0.17390    0.36210    0.84000    1.000
    O84      O        0.09140    0.33300    0.61700    1.000
    C179     C        0.14600    0.37000    0.76500    1.000
    C180     C        0.12700    0.32200    0.66300    1.000
    H173     H        0.13030    0.28290    0.71250    1.000
    H174     H        0.13700    0.31990    0.57440    1.000
    Pb7      Pb       0.33043    0.99164    0.56243    1.000
    K7       K        0.29095    0.12970    0.34850    1.000
    O85      O        0.35920    0.05320    0.76800    1.000
    O86      O        0.34030    0.12550    0.60700    1.000
    O87      O        0.36670    0.21080    0.79140    1.000
    O88      O        0.21390    0.51420    0.29650    1.000
    O89      O        0.23620    0.45030    0.47130    1.000
    O90      O        0.29460    0.45020    0.38350    1.000
    O91      O        0.34870    0.92390    0.76110    1.000
    O92      O        0.39050    0.92100    0.64480    1.000
    O93      O        0.42120    0.83550    0.83400    1.000
    C181     C        0.36000    0.10520    0.71800    1.000
    C182     C        0.37950    0.15020    0.82540    1.000
    H175     H        0.40340    0.14870    0.81960    1.000
    H176     H        0.37750    0.13950    0.92620    1.000
    C183     C        0.38190    0.25800    0.88790    1.000
    C184     C        0.40650    0.24880    0.01400    1.000
    H177     H        0.41510    0.20980    0.03990    1.000
    C185     C        0.41810    0.29940    0.10120    1.000
    H178     H        0.43430    0.29290    0.18740    1.000
    C186     C        0.40720    0.35920    0.06870    1.000
    C187     C        0.38270    0.36540    0.93890    1.000
    H179     H        0.37440    0.40440    0.91130    1.000
    C188     C        0.36990    0.31630    0.84830    1.000
    H180     H        0.35360    0.32250    0.76240    1.000
    C189     C        0.23780    0.48390    0.36530    1.000
    C190     C        0.26990    0.49190    0.30580    1.000
    H181     H        0.26560    0.48330    0.19970    1.000
    H182     H        0.27800    0.53380    0.32140    1.000
    C191     C        0.32540    0.44750    0.33170    1.000
    C192     C        0.33450    0.48810    0.23180    1.000
    H183     H        0.32060    0.52100    0.19520    1.000
    C193     C        0.36540    0.47880    0.18700    1.000
    H184     H        0.37210    0.50690    0.12180    1.000
    C194     C        0.38650    0.42970    0.23490    1.000
    C195     C        0.37580    0.39020    0.33590    1.000
    H185     H        0.38960    0.35710    0.37180    1.000
    C196     C        0.34550    0.39780    0.38590    1.000
    H186     H        0.33900    0.37050    0.45330    1.000
    C197     C        0.41700    0.41410    0.16640    1.000
    C198     C        0.44740    0.40070    0.29370    1.000
    H187     H        0.46610    0.38570    0.25270    1.000
    H188     H        0.45400    0.43770    0.34870    1.000
    H189     H        0.44100    0.37030    0.35910    1.000
    C199     C        0.42750    0.46820    0.07770    1.000
    H190     H        0.41040    0.47480    0.98980    1.000
    H191     H        0.42980    0.50450    0.13840    1.000
    H192     H        0.44880    0.45910    0.04950    1.000
    C200     C        0.37500    0.90100    0.74000    1.000
    C201     C        0.38720    0.85060    0.84500    1.000
    H193     H        0.37280    0.81470    0.82310    1.000
    H194     H        0.38650    0.86420    0.94520    1.000
    C202     C        0.43570    0.79360    0.94860    1.000
    C203     C        0.42040    0.75710    0.04050    1.000
    H195     H        0.39720    0.75970    0.03930    1.000
    C204     C        0.44130    0.71620    0.13540    1.000
    H196     H        0.43130    0.69030    0.19550    1.000
    C205     C        0.47620    0.71250    0.14380    1.000
    C206     C        0.49030    0.74940    0.04730    1.000
    H197     H        0.51370    0.74810    0.05110    1.000
    C207     C        0.47040    0.78790    0.94590    1.000
    H198     H        0.47990    0.80970    0.87680    1.000
    C208     C        0.48060    0.63080    0.34080    1.000
    H199     H        0.46670    0.65580    0.39160    1.000
    H200     H        0.46640    0.60290    0.27500    1.000
    H201     H        0.49650    0.60800    0.41260    1.000
    O94      O        0.37970    0.06760    0.67700    1.000
    O95      O        0.33020    0.11100    0.66600    1.000
    O96      O        0.37200    0.91600    0.73000    1.000
    O97      O        0.32610    0.86210    0.66000    1.000
    O98      O        0.40860    0.83300    0.88300    1.000
    C209     C        0.35400    0.87000    0.73500    1.000
    C210     C        0.37300    0.82200    0.83700    1.000
    H202     H        0.36970    0.78290    0.78750    1.000
    H203     H        0.36300    0.81990    0.92560    1.000
    Pb8      Pb       0.83043    0.49164    0.56243    1.000
    K8       K        0.79095    0.62970    0.34850    1.000
    O99      O        0.85920    0.55320    0.76800    1.000
    O100     O        0.84030    0.62550    0.60700    1.000
    O101     O        0.86670    0.71080    0.79140    1.000
    O102     O        0.71390    0.01420    0.29650    1.000
    O103     O        0.73620    0.95030    0.47130    1.000
    O104     O        0.79460    0.95020    0.38350    1.000
    O105     O        0.84870    0.42390    0.76110    1.000
    O106     O        0.89050    0.42100    0.64480    1.000
    O107     O        0.92120    0.33550    0.83400    1.000
    C211     C        0.86000    0.60520    0.71800    1.000
    C212     C        0.87950    0.65020    0.82540    1.000
    H204     H        0.90340    0.64870    0.81960    1.000
    H205     H        0.87750    0.63950    0.92620    1.000
    C213     C        0.88190    0.75800    0.88790    1.000
    C214     C        0.90650    0.74880    0.01400    1.000
    H206     H        0.91510    0.70980    0.03990    1.000
    C215     C        0.91810    0.79940    0.10120    1.000
    H207     H        0.93430    0.79290    0.18740    1.000
    C216     C        0.90720    0.85920    0.06870    1.000
    C217     C        0.88270    0.86540    0.93890    1.000
    H208     H        0.87440    0.90440    0.91130    1.000
    C218     C        0.86990    0.81630    0.84830    1.000
    H209     H        0.85360    0.82250    0.76240    1.000
    C219     C        0.73780    0.98390    0.36530    1.000
    C220     C        0.76990    0.99190    0.30580    1.000
    H210     H        0.76560    0.98330    0.19970    1.000
    H211     H        0.77800    0.03380    0.32140    1.000
    C221     C        0.82540    0.94750    0.33170    1.000
    C222     C        0.83450    0.98810    0.23180    1.000
    H212     H        0.82060    0.02100    0.19520    1.000
    C223     C        0.86540    0.97880    0.18700    1.000
    H213     H        0.87210    0.00690    0.12180    1.000
    C224     C        0.88650    0.92970    0.23490    1.000
    C225     C        0.87580    0.89020    0.33590    1.000
    H214     H        0.88960    0.85710    0.37180    1.000
    C226     C        0.84550    0.89780    0.38590    1.000
    H215     H        0.83900    0.87050    0.45330    1.000
    C227     C        0.91700    0.91410    0.16640    1.000
    C228     C        0.94740    0.90070    0.29370    1.000
    H216     H        0.96610    0.88570    0.25270    1.000
    H217     H        0.95400    0.93770    0.34870    1.000
    H218     H        0.94100    0.87030    0.35910    1.000
    C229     C        0.92750    0.96820    0.07770    1.000
    H219     H        0.91040    0.97480    0.98980    1.000
    H220     H        0.92980    0.00450    0.13840    1.000
    H221     H        0.94880    0.95910    0.04950    1.000
    C230     C        0.87500    0.40100    0.74000    1.000
    C231     C        0.88720    0.35060    0.84500    1.000
    H222     H        0.87280    0.31470    0.82310    1.000
    H223     H        0.88650    0.36420    0.94520    1.000
    C232     C        0.93570    0.29360    0.94860    1.000
    C233     C        0.92040    0.25710    0.04050    1.000
    H224     H        0.89720    0.25970    0.03930    1.000
    C234     C        0.94130    0.21620    0.13540    1.000
    H225     H        0.93130    0.19030    0.19550    1.000
    C235     C        0.97620    0.21250    0.14380    1.000
    C236     C        0.99030    0.24940    0.04730    1.000
    H226     H        0.01370    0.24810    0.05110    1.000
    C237     C        0.97040    0.28790    0.94590    1.000
    H227     H        0.97990    0.30970    0.87680    1.000
    C238     C        0.98060    0.13080    0.34080    1.000
    H228     H        0.96670    0.15580    0.39160    1.000
    H229     H        0.96640    0.10290    0.27500    1.000
    H230     H        0.99650    0.10800    0.41260    1.000
    O108     O        0.87970    0.56760    0.67700    1.000
    O109     O        0.83020    0.61100    0.66600    1.000
    O110     O        0.87200    0.41600    0.73000    1.000
    O111     O        0.82610    0.36210    0.66000    1.000
    O112     O        0.90860    0.33300    0.88300    1.000
    C239     C        0.85400    0.37000    0.73500    1.000
    C240     C        0.87300    0.32200    0.83700    1.000
    H231     H        0.86970    0.28290    0.78750    1.000
    H232     H        0.86300    0.31990    0.92560    1.000
    C241     C        0.50000    0.32790    0.75000    1.000
    C242     C        0.00000    0.82790    0.75000    1.000
    C243     C        0.50000    0.67210    0.25000    1.000
    C244     C        0.00000    0.17210    0.25000    1.000
