# CIF file generated by openbabel 3.1.0, see https://openbabel.org
data_I
_chemical_name_common 'image0'
_cell_length_a 13.95
_cell_length_b 26.713
_cell_length_c 7.628
_cell_angle_alpha 90
_cell_angle_beta 90
_cell_angle_gamma 90
_space_group_name_H-M_alt 'P 1'
_space_group_name_Hall 'P 1'
loop_
    _symmetry_equiv_pos_as_xyz
    x,y,z
loop_
    _atom_site_label
    _atom_site_type_symbol
    _atom_site_fract_x
    _atom_site_fract_y
    _atom_site_fract_z
    _atom_site_occupancy
    Cd1      Cd       0.69205    0.50000    0.62347    1.000
    Cd2      Cd       0.73930    0.76917    0.62463    1.000
    Ni1      Ni       0.74864    0.63379    0.11515    1.000
    Ni2      Ni       0.47564    0.38378    0.99480    1.000
    N1       N        0.71770    0.55680    0.83590    1.000
    N2       N        0.72430    0.55730    0.39950    1.000
    N3       N        0.64290    0.43760    0.83200    1.000
    N4       N        0.34520    0.46590    0.87580    1.000
    N5       N        0.65280    0.44260    0.39400    1.000
    N6       N        0.52820    0.51300    0.57130    1.000
    N7       N        0.76170    0.71180    0.83510    1.000
    N8       N        0.76520    0.71200    0.39570    1.000
    N9       N        0.30700    0.33240    0.15900    1.000
    N10      N        0.60720    0.30260    0.11630    1.000
    N11      N        0.69730    0.82730    0.40300    1.000
    N12      N        0.57240    0.75590    0.58690    1.000
    C1       C        0.72960    0.58560    0.94300    1.000
    C2       C        0.73370    0.58600    0.28880    1.000
    C3       C        0.58100    0.41640    0.89790    1.000
    C4       C        0.39490    0.43490    0.92030    1.000
    C5       C        0.76060    0.68180    0.94000    1.000
    C6       C        0.76110    0.68260    0.28730    1.000
    C7       C        0.37000    0.35160    0.09500    1.000
    C8       C        0.55570    0.33270    0.06900    1.000
    C9       C        0.55150    0.44600    0.36100    1.000
    C10      C        0.49630    0.48060    0.43300    1.000
    C11      C        0.38990    0.48000    0.39100    1.000
    C12      C        0.58980    0.82840    0.39700    1.000
    C13      C        0.54150    0.78510    0.43400    1.000
    C14      C        0.43290    0.78670    0.40900    1.000
    Cd3      Cd       0.30795    0.00000    0.37653    1.000
    Cd4      Cd       0.26070    0.26917    0.37537    1.000
    Ni3      Ni       0.25136    0.13379    0.88485    1.000
    Ni4      Ni       0.52436    0.88378    0.00520    1.000
    N13      N        0.28230    0.05680    0.16410    1.000
    N14      N        0.27570    0.05730    0.60050    1.000
    N15      N        0.35710    0.93760    0.16800    1.000
    N16      N        0.65480    0.96590    0.12420    1.000
    N17      N        0.34720    0.94260    0.60600    1.000
    N18      N        0.47180    0.01300    0.42870    1.000
    N19      N        0.23830    0.21180    0.16490    1.000
    N20      N        0.23480    0.21200    0.60430    1.000
    N21      N        0.69300    0.83240    0.84100    1.000
    N22      N        0.39280    0.80260    0.88370    1.000
    N23      N        0.30270    0.32730    0.59700    1.000
    N24      N        0.42760    0.25590    0.41310    1.000
    C15      C        0.27040    0.08560    0.05700    1.000
    C16      C        0.26630    0.08600    0.71120    1.000
    C17      C        0.41900    0.91640    0.10210    1.000
    C18      C        0.60510    0.93490    0.07970    1.000
    C19      C        0.23940    0.18180    0.06000    1.000
    C20      C        0.23890    0.18260    0.71270    1.000
    C21      C        0.63000    0.85160    0.90500    1.000
    C22      C        0.44430    0.83270    0.93100    1.000
    C23      C        0.44850    0.94600    0.63900    1.000
    C24      C        0.50370    0.98060    0.56700    1.000
    C25      C        0.61010    0.98000    0.60900    1.000
    C26      C        0.41020    0.32840    0.60300    1.000
    C27      C        0.45850    0.28510    0.56600    1.000
    C28      C        0.56710    0.28670    0.59100    1.000
    Cd5      Cd       0.19205    0.50000    0.87653    1.000
    Cd6      Cd       0.23930    0.76917    0.87537    1.000
    Ni5      Ni       0.24864    0.63379    0.38485    1.000
    Ni6      Ni       0.97564    0.38378    0.50520    1.000
    N25      N        0.21770    0.55680    0.66410    1.000
    N26      N        0.22430    0.55730    0.10050    1.000
    N27      N        0.14290    0.43760    0.66800    1.000
    N28      N        0.84520    0.46590    0.62420    1.000
    N29      N        0.15280    0.44260    0.10600    1.000
    N30      N        0.02820    0.51300    0.92870    1.000
    N31      N        0.26170    0.71180    0.66490    1.000
    N32      N        0.26520    0.71200    0.10430    1.000
    N33      N        0.80700    0.33240    0.34100    1.000
    N34      N        0.10720    0.30260    0.38370    1.000
    N35      N        0.19730    0.82730    0.09700    1.000
    N36      N        0.07240    0.75590    0.91310    1.000
    C29      C        0.22960    0.58560    0.55700    1.000
    C30      C        0.23370    0.58600    0.21120    1.000
    C31      C        0.08100    0.41640    0.60210    1.000
    C32      C        0.89490    0.43490    0.57970    1.000
    C33      C        0.26060    0.68180    0.56000    1.000
    C34      C        0.26110    0.68260    0.21270    1.000
    C35      C        0.87000    0.35160    0.40500    1.000
    C36      C        0.05570    0.33270    0.43100    1.000
    C37      C        0.05150    0.44600    0.13900    1.000
    C38      C        0.99630    0.48060    0.06700    1.000
    C39      C        0.88990    0.48000    0.10900    1.000
    C40      C        0.08980    0.82840    0.10300    1.000
    C41      C        0.04150    0.78510    0.06600    1.000
    C42      C        0.93290    0.78670    0.09100    1.000
    Cd7      Cd       0.80795    0.00000    0.12347    1.000
    Cd8      Cd       0.76070    0.26917    0.12463    1.000
    Ni7      Ni       0.75136    0.13379    0.61515    1.000
    Ni8      Ni       0.02436    0.88378    0.49480    1.000
    N37      N        0.78230    0.05680    0.33590    1.000
    N38      N        0.77570    0.05730    0.89950    1.000
    N39      N        0.85710    0.93760    0.33200    1.000
    N40      N        0.15480    0.96590    0.37580    1.000
    N41      N        0.84720    0.94260    0.89400    1.000
    N42      N        0.97180    0.01300    0.07130    1.000
    N43      N        0.73830    0.21180    0.33510    1.000
    N44      N        0.73480    0.21200    0.89570    1.000
    N45      N        0.19300    0.83240    0.65900    1.000
    N46      N        0.89280    0.80260    0.61630    1.000
    N47      N        0.80270    0.32730    0.90300    1.000
    N48      N        0.92760    0.25590    0.08690    1.000
    C43      C        0.77040    0.08560    0.44300    1.000
    C44      C        0.76630    0.08600    0.78880    1.000
    C45      C        0.91900    0.91640    0.39790    1.000
    C46      C        0.10510    0.93490    0.42030    1.000
    C47      C        0.73940    0.18180    0.44000    1.000
    C48      C        0.73890    0.18260    0.78730    1.000
    C49      C        0.13000    0.85160    0.59500    1.000
    C50      C        0.94430    0.83270    0.56900    1.000
    C51      C        0.94850    0.94600    0.86100    1.000
    C52      C        0.00370    0.98060    0.93300    1.000
    C53      C        0.11010    0.98000    0.89100    1.000
    C54      C        0.91020    0.32840    0.89700    1.000
    C55      C        0.95850    0.28510    0.93400    1.000
    C56      C        0.06710    0.28670    0.90900    1.000
