# CIF file generated by openbabel 3.1.0, see https://openbabel.org
data_I
_chemical_name_common 'image0'
_cell_length_a 9.493
_cell_length_b 11.242
_cell_length_c 11.27
_cell_angle_alpha 82.89
_cell_angle_beta 83.8
_cell_angle_gamma 77.68
_space_group_name_H-M_alt 'P 1'
_space_group_name_Hall 'P 1'
loop_
    _symmetry_equiv_pos_as_xyz
    x,y,z
loop_
    _atom_site_label
    _atom_site_type_symbol
    _atom_site_fract_x
    _atom_site_fract_y
    _atom_site_fract_z
    _atom_site_occupancy
    Ca1      Ca       0.97459    0.33006    0.97779    1.000
    C1       C        0.59970    0.39420    0.84850    1.000
    C2       C        0.48130    0.38350    0.78560    1.000
    C3       C        0.34740    0.37710    0.85070    1.000
    C4       C        0.50120    0.36800    0.66040    1.000
    C5       C        0.38850    0.34080    0.60070    1.000
    H1       H        0.30110    0.33340    0.64400    1.000
    C6       C        0.40630    0.32540    0.48210    1.000
    H2       H        0.33130    0.30670    0.44590    1.000
    C7       C        0.53790    0.33740    0.41200    1.000
    C8       C        0.64990    0.36370    0.47150    1.000
    H3       H        0.73740    0.37110    0.42840    1.000
    C9       C        0.63190    0.37850    0.59110    1.000
    H4       H        0.70740    0.39580    0.62770    1.000
    C10      C        0.55730    0.32300    0.28790    1.000
    C11      C        0.44360    0.30080    0.22650    1.000
    C12      C        0.68980    0.32660    0.21860    1.000
    C13      C        0.02240    0.33290    0.45030    1.000
    C14      C        0.01620    0.23950    0.54430    1.000
    C15      C        0.01330    0.27100    0.66260    1.000
    C16      C        0.00690    0.08940    0.40390    1.000
    H5       H        0.01130    0.14960    0.33990    1.000
    C17      C        0.00810    0.11880    0.52290    1.000
    C18      C        0.00060    0.02480    0.61760    1.000
    H6       H        0.00080    0.04180    0.69620    1.000
    N1       N        0.69970    0.39920    0.89690    1.000
    N2       N        0.23590    0.37070    0.89820    1.000
    N3       N        0.34990    0.28390    0.17970    1.000
    N4       N        0.79850    0.32730    0.16110    1.000
    N5       N        0.01000    0.29560    0.75920    1.000
    N6       N        0.02580    0.40570    0.36980    1.000
    O1       O        0.93360    0.54510    0.88556    1.000
    H7       H        0.98280    0.54220    0.81790    1.000
    H8       H        0.84860    0.58420    0.87290    1.000
    Ca2      Ca       0.02541    0.66994    0.02221    1.000
    C19      C        0.40030    0.60580    0.15150    1.000
    C20      C        0.51870    0.61650    0.21440    1.000
    C21      C        0.65260    0.62290    0.14930    1.000
    C22      C        0.49880    0.63200    0.33960    1.000
    C23      C        0.61150    0.65920    0.39930    1.000
    H9       H        0.69890    0.66660    0.35600    1.000
    C24      C        0.59370    0.67460    0.51790    1.000
    H10      H        0.66870    0.69330    0.55410    1.000
    C25      C        0.46210    0.66260    0.58800    1.000
    C26      C        0.35010    0.63630    0.52850    1.000
    H11      H        0.26260    0.62890    0.57160    1.000
    C27      C        0.36810    0.62150    0.40890    1.000
    H12      H        0.29260    0.60420    0.37230    1.000
    C28      C        0.44270    0.67700    0.71210    1.000
    C29      C        0.55640    0.69920    0.77350    1.000
    C30      C        0.31020    0.67340    0.78140    1.000
    C31      C        0.97760    0.66710    0.54970    1.000
    C32      C        0.98380    0.76050    0.45570    1.000
    C33      C        0.98670    0.72900    0.33740    1.000
    C34      C        0.99310    0.91060    0.59610    1.000
    H13      H        0.98870    0.85040    0.66010    1.000
    C35      C        0.99190    0.88120    0.47710    1.000
    C36      C        0.99940    0.97520    0.38240    1.000
    H14      H        0.99920    0.95820    0.30380    1.000
    N7       N        0.30030    0.60080    0.10310    1.000
    N8       N        0.76410    0.62930    0.10180    1.000
    N9       N        0.65010    0.71610    0.82030    1.000
    N10      N        0.20150    0.67270    0.83890    1.000
    N11      N        0.99000    0.70440    0.24080    1.000
    N12      N        0.97420    0.59430    0.63020    1.000
    O2       O        0.06640    0.45490    0.11444    1.000
    H15      H        0.01720    0.45780    0.18210    1.000
    H16      H        0.15140    0.41580    0.12710    1.000
