# CIF file generated by openbabel 3.1.0, see https://openbabel.org
data_I
_chemical_name_common 'image0'
_cell_length_a 15.591
_cell_length_b 15.241
_cell_length_c 12.126
_cell_angle_alpha 90
_cell_angle_beta 90
_cell_angle_gamma 90
_space_group_name_H-M_alt 'P 1'
_space_group_name_Hall 'P 1'
loop_
    _symmetry_equiv_pos_as_xyz
    x,y,z
loop_
    _atom_site_label
    _atom_site_type_symbol
    _atom_site_fract_x
    _atom_site_fract_y
    _atom_site_fract_z
    _atom_site_occupancy
    W1       W        0.01524    0.01810    0.09842    1.000
    Cu1      Cu       0.14660    0.98750    0.23700    1.000
    Cu2      Cu       0.10940    0.15260    0.02520    1.000
    Cu3      Cu       0.88200    0.07090    0.96700    1.000
    Cu4      Cu       0.91140    0.88840    0.17200    1.000
    S1       S        0.96980    0.15640    0.07890    1.000
    S2       S        0.15290    0.01120    0.04920    1.000
    S3       S        0.00210    0.97450    0.27370    1.000
    S4       S        0.93700    0.93060    0.99130    1.000
    S5       S        0.24390    0.41630    0.95890    1.000
    S6       S        0.88420    0.10370    0.77910    1.000
    S7       S        0.19470    0.10860    0.35140    1.000
    S8       S        0.40000    0.83730    0.30630    1.000
    N1       N        0.23480    0.90710    0.28400    1.000
    C1       C        0.30290    0.87800    0.29300    1.000
    N2       N        0.17870    0.25700    0.03300    1.000
    C2       C        0.20850    0.32420    0.00600    1.000
    N3       N        0.09400    0.25600    0.31900    1.000
    C3       C        0.13600    0.19320    0.33200    1.000
    N4       N        0.71130    0.08800    0.72100    1.000
    C4       C        0.78140    0.09300    0.74900    1.000
    W2       W        0.48476    0.98190    0.59842    1.000
    Cu5      Cu       0.35340    0.01250    0.73700    1.000
    Cu6      Cu       0.39060    0.84740    0.52520    1.000
    Cu7      Cu       0.61800    0.92910    0.46700    1.000
    Cu8      Cu       0.58860    0.11160    0.67200    1.000
    S9       S        0.53020    0.84360    0.57890    1.000
    S10      S        0.34710    0.98880    0.54920    1.000
    S11      S        0.49790    0.02550    0.77370    1.000
    S12      S        0.56300    0.06940    0.49130    1.000
    S13      S        0.25610    0.58370    0.45890    1.000
    S14      S        0.61580    0.89630    0.27910    1.000
    S15      S        0.30530    0.89140    0.85140    1.000
    S16      S        0.10000    0.16270    0.80630    1.000
    N5       N        0.26520    0.09290    0.78400    1.000
    C5       C        0.19710    0.12200    0.79300    1.000
    N6       N        0.32130    0.74300    0.53300    1.000
    C6       C        0.29150    0.67580    0.50600    1.000
    N7       N        0.40600    0.74400    0.81900    1.000
    C7       C        0.36400    0.80680    0.83200    1.000
    N8       N        0.78870    0.91200    0.22100    1.000
    C8       C        0.71860    0.90700    0.24900    1.000
    W3       W        0.98476    0.51810    0.40158    1.000
    Cu9      Cu       0.85340    0.48750    0.26300    1.000
    Cu10     Cu       0.89060    0.65260    0.47480    1.000
    Cu11     Cu       0.11800    0.57090    0.53300    1.000
    Cu12     Cu       0.08860    0.38840    0.32800    1.000
    S17      S        0.03020    0.65640    0.42110    1.000
    S18      S        0.84710    0.51120    0.45080    1.000
    S19      S        0.99790    0.47450    0.22630    1.000
    S20      S        0.06300    0.43060    0.50870    1.000
    S21      S        0.75610    0.91630    0.54110    1.000
    S22      S        0.11580    0.60370    0.72090    1.000
    S23      S        0.80530    0.60860    0.14860    1.000
    S24      S        0.60000    0.33730    0.19370    1.000
    N9       N        0.76520    0.40710    0.21600    1.000
    C9       C        0.69710    0.37800    0.20700    1.000
    N10      N        0.82130    0.75700    0.46700    1.000
    C10      C        0.79150    0.82420    0.49400    1.000
    N11      N        0.90600    0.75600    0.18100    1.000
    C11      C        0.86400    0.69320    0.16800    1.000
    N12      N        0.28870    0.58800    0.77900    1.000
    C12      C        0.21860    0.59300    0.75100    1.000
    W4       W        0.51524    0.48190    0.90158    1.000
    Cu13     Cu       0.64660    0.51250    0.76300    1.000
    Cu14     Cu       0.60940    0.34740    0.97480    1.000
    Cu15     Cu       0.38200    0.42910    0.03300    1.000
    Cu16     Cu       0.41140    0.61160    0.82800    1.000
    S25      S        0.46980    0.34360    0.92110    1.000
    S26      S        0.65290    0.48880    0.95080    1.000
    S27      S        0.50210    0.52550    0.72630    1.000
    S28      S        0.43700    0.56940    0.00870    1.000
    S29      S        0.74390    0.08370    0.04110    1.000
    S30      S        0.38420    0.39630    0.22090    1.000
    S31      S        0.69470    0.39140    0.64860    1.000
    S32      S        0.90000    0.66270    0.69370    1.000
    N13      N        0.73480    0.59290    0.71600    1.000
    C13      C        0.80290    0.62200    0.70700    1.000
    N14      N        0.67870    0.24300    0.96700    1.000
    C14      C        0.70850    0.17580    0.99400    1.000
    N15      N        0.59400    0.24400    0.68100    1.000
    C15      C        0.63600    0.30680    0.66800    1.000
    N16      N        0.21130    0.41200    0.27900    1.000
    C16      C        0.28140    0.40700    0.25100    1.000
