# CIF file generated by openbabel 3.1.0, see https://openbabel.org
data_I
_chemical_name_common 'image0'
_cell_length_a 16.7094
_cell_length_b 20.2857
_cell_length_c 17.1936
_cell_angle_alpha 90
_cell_angle_beta 99.178
_cell_angle_gamma 90
_space_group_name_H-M_alt 'P 1'
_space_group_name_Hall 'P 1'
loop_
    _symmetry_equiv_pos_as_xyz
    x,y,z
loop_
    _atom_site_label
    _atom_site_type_symbol
    _atom_site_fract_x
    _atom_site_fract_y
    _atom_site_fract_z
    _atom_site_occupancy
    Mn1      Mn       0.03628    0.83793    0.24945    1.000
    Mn2      Mn       0.15001    0.88419    0.44488    1.000
    Mn3      Mn       0.91130    0.85701    0.05124    1.000
    S1       S        0.90031    0.51886    0.54224    1.000
    S2       S        0.56093    0.72651    0.27533    1.000
    S3       S        0.95570    0.43167    0.15342    1.000
    O1       O        0.99410    0.75864    0.17317    1.000
    O2       O        0.01953    0.77519    0.34582    1.000
    O3       O        0.42533    0.42244    0.17897    1.000
    O4       O        0.58843    0.37213    0.25176    1.000
    O5       O        0.16433    0.80811    0.25509    1.000
    O6       O        0.53770    0.60645    0.63659    1.000
    O7       O        0.21094    0.81666    0.38489    1.000
    O8       O        0.06261    0.81211    0.46854    1.000
    O9       O        0.43616    0.46447    0.06259    1.000
    O10      O        0.66015    0.39016    0.37130    1.000
    O11      O        0.92281    0.75500    0.05320    1.000
    O12      O        0.50828    0.59718    0.50767    1.000
    O13      O        0.89838    0.47131    0.47979    1.000
    O14      O        0.94559    0.50506    0.61910    1.000
    O15      O        0.60942    0.72474    0.35235    1.000
    O16      O        0.58594    0.76704    0.21455    1.000
    O17      O        0.94500    0.40065    0.07738    1.000
    O18      O        0.02477    0.41509    0.21197    1.000
    C1       C        0.02720    0.77126    0.41920    1.000
    C2       C        0.99236    0.70996    0.45160    1.000
    C3       C        0.95090    0.66433    0.40000    1.000
    H1       H        0.94230    0.67300    0.34620    1.000
    C4       C        0.92210    0.60611    0.42745    1.000
    H2       H        0.89540    0.57520    0.39260    1.000
    C5       C        0.93378    0.59481    0.50816    1.000
    C6       C        0.97360    0.64026    0.56110    1.000
    H3       H        0.98050    0.63220    0.61500    1.000
    C7       C        0.00280    0.69758    0.53246    1.000
    H4       H        0.02980    0.72820    0.56740    1.000
    C8       C        0.79903    0.53564    0.55369    1.000
    C9       C        0.73800    0.52584    0.48961    1.000
    H5       H        0.74990    0.50810    0.44290    1.000
    C10      C        0.65950    0.54287    0.49650    1.000
    H6       H        0.61790    0.53630    0.45440    1.000
    C11      C        0.64230    0.56993    0.56688    1.000
    C12      C        0.70360    0.57713    0.63140    1.000
    H7       H        0.69140    0.59310    0.67890    1.000
    C13      C        0.78300    0.56052    0.62487    1.000
    H8       H        0.82450    0.56590    0.66730    1.000
    C14      C        0.55770    0.59244    0.57120    1.000
    C15      C        0.21900    0.80415    0.31427    1.000
    C16      C        0.30295    0.78287    0.30272    1.000
    C17      C        0.36199    0.77183    0.36908    1.000
    H9       H        0.34820    0.77630    0.41910    1.000
    C18      C        0.44030    0.75449    0.36130    1.000
    H10      H        0.47890    0.74670    0.40560    1.000
    C19      C        0.46049    0.74890    0.28588    1.000
    C20      C        0.40250    0.75976    0.21922    1.000
    H11      H        0.41660    0.75610    0.16920    1.000
    C21      C        0.32430    0.77599    0.22774    1.000
    H12      H        0.28540    0.78240    0.18330    1.000
    C22      C        0.54792    0.64497    0.23835    1.000
    C23      C        0.53090    0.59451    0.28840    1.000
    H13      H        0.53620    0.60150    0.34240    1.000
    C24      C        0.50600    0.53401    0.25630    1.000
    H14      H        0.49460    0.49980    0.28880    1.000
    C25      C        0.49810    0.52417    0.17502    1.000
    C26      C        0.52250    0.57300    0.12680    1.000
    H15      H        0.52250    0.56460    0.07360    1.000
    C27      C        0.54690    0.63402    0.15820    1.000
    H16      H        0.56230    0.66720    0.12630    1.000
    C28      C        0.45290    0.46560    0.13680    1.000
    C29      C        0.95780    0.72802    0.11575    1.000
    C30      C        0.95602    0.65420    0.12190    1.000
    C31      C        0.92480    0.61395    0.05890    1.000
    H17      H        0.90380    0.63270    0.01060    1.000
    C32      C        0.92480    0.54598    0.06760    1.000
    H18      H        0.90390    0.51920    0.02540    1.000
    C33      C        0.95620    0.51831    0.13960    1.000
    C34      C        0.98740    0.55792    0.20380    1.000
    H19      H        0.00790    0.53910    0.25220    1.000
    C35      C        0.98720    0.62526    0.19411    1.000
    H20      H        0.00830    0.65200    0.23640    1.000
    C36      C        0.86680    0.41882    0.19560    1.000
    C37      C        0.79510    0.40180    0.14760    1.000
    H21      H        0.79370    0.39670    0.09360    1.000
    C38      C        0.72590    0.39240    0.18060    1.000
    H22      H        0.67750    0.38150    0.14850    1.000
    C39      C        0.72770    0.39912    0.26186    1.000
    C40      C        0.80000    0.41584    0.30905    1.000
    H23      H        0.80200    0.42000    0.36320    1.000
    C41      C        0.86960    0.42646    0.27620    1.000
    H24      H        0.91770    0.43860    0.30790    1.000
    C42      C        0.65200    0.38619    0.29700    1.000
    Mn4      Mn       0.46372    0.33793    0.25055    1.000
    Mn5      Mn       0.34999    0.38419    0.05512    1.000
    Mn6      Mn       0.58870    0.35701    0.44876    1.000
    S4       S        0.59969    0.01886    0.95776    1.000
    S5       S        0.93907    0.22651    0.22467    1.000
    S6       S        0.54430    0.93167    0.34658    1.000
    O19      O        0.50590    0.25864    0.32683    1.000
    O20      O        0.48047    0.27519    0.15418    1.000
    O21      O        0.07467    0.92244    0.32103    1.000
    O22      O        0.91157    0.87213    0.24824    1.000
    O23      O        0.33567    0.30811    0.24491    1.000
    O24      O        0.96230    0.10645    0.86341    1.000
    O25      O        0.28906    0.31666    0.11511    1.000
    O26      O        0.43739    0.31211    0.03146    1.000
    O27      O        0.06384    0.96447    0.43741    1.000
    O28      O        0.83985    0.89016    0.12870    1.000
    O29      O        0.57719    0.25500    0.44680    1.000
    O30      O        0.99172    0.09718    0.99233    1.000
    O31      O        0.60162    0.97131    0.02021    1.000
    O32      O        0.55441    0.00506    0.88090    1.000
    O33      O        0.89058    0.22474    0.14765    1.000
    O34      O        0.91406    0.26704    0.28545    1.000
    O35      O        0.55500    0.90065    0.42262    1.000
    O36      O        0.47523    0.91509    0.28803    1.000
    C43      C        0.47280    0.27126    0.08080    1.000
    C44      C        0.50764    0.20996    0.04840    1.000
    C45      C        0.54910    0.16433    0.10000    1.000
    H25      H        0.55770    0.17300    0.15380    1.000
    C46      C        0.57790    0.10611    0.07255    1.000
    H26      H        0.60460    0.07520    0.10740    1.000
    C47      C        0.56622    0.09481    0.99184    1.000
    C48      C        0.52640    0.14026    0.93890    1.000
    H27      H        0.51950    0.13220    0.88500    1.000
    C49      C        0.49720    0.19758    0.96754    1.000
    H28      H        0.47020    0.22820    0.93260    1.000
    C50      C        0.70097    0.03564    0.94631    1.000
    C51      C        0.76200    0.02584    0.01039    1.000
    H29      H        0.75010    0.00810    0.05710    1.000
    C52      C        0.84050    0.04287    0.00350    1.000
    H30      H        0.88210    0.03630    0.04560    1.000
    C53      C        0.85770    0.06993    0.93312    1.000
    C54      C        0.79640    0.07713    0.86860    1.000
    H31      H        0.80860    0.09310    0.82110    1.000
    C55      C        0.71700    0.06052    0.87513    1.000
    H32      H        0.67550    0.06590    0.83270    1.000
    C56      C        0.94230    0.09244    0.92880    1.000
    C57      C        0.28100    0.30415    0.18573    1.000
    C58      C        0.19705    0.28287    0.19728    1.000
    C59      C        0.13801    0.27183    0.13092    1.000
    H33      H        0.15180    0.27630    0.08090    1.000
    C60      C        0.05970    0.25449    0.13870    1.000
    H34      H        0.02110    0.24670    0.09440    1.000
    C61      C        0.03951    0.24890    0.21412    1.000
    C62      C        0.09750    0.25976    0.28078    1.000
    H35      H        0.08340    0.25610    0.33080    1.000
    C63      C        0.17570    0.27599    0.27226    1.000
    H36      H        0.21460    0.28240    0.31670    1.000
    C64      C        0.95208    0.14497    0.26165    1.000
    C65      C        0.96910    0.09451    0.21160    1.000
    H37      H        0.96380    0.10150    0.15760    1.000
    C66      C        0.99400    0.03401    0.24370    1.000
    H38      H        0.00540    0.99980    0.21120    1.000
    C67      C        0.00190    0.02417    0.32498    1.000
    C68      C        0.97750    0.07300    0.37320    1.000
    H39      H        0.97750    0.06460    0.42640    1.000
    C69      C        0.95310    0.13402    0.34180    1.000
    H40      H        0.93770    0.16720    0.37370    1.000
    C70      C        0.04710    0.96560    0.36320    1.000
    C71      C        0.54220    0.22802    0.38425    1.000
    C72      C        0.54398    0.15420    0.37810    1.000
    C73      C        0.57520    0.11395    0.44110    1.000
    H41      H        0.59620    0.13270    0.48940    1.000
    C74      C        0.57520    0.04598    0.43240    1.000
    H42      H        0.59610    0.01920    0.47460    1.000
    C75      C        0.54380    0.01831    0.36040    1.000
    C76      C        0.51260    0.05792    0.29620    1.000
    H43      H        0.49210    0.03910    0.24780    1.000
    C77      C        0.51280    0.12526    0.30589    1.000
    H44      H        0.49170    0.15200    0.26360    1.000
    C78      C        0.63320    0.91882    0.30440    1.000
    C79      C        0.70490    0.90180    0.35240    1.000
    H45      H        0.70630    0.89670    0.40640    1.000
    C80      C        0.77410    0.89240    0.31940    1.000
    H46      H        0.82250    0.88150    0.35150    1.000
    C81      C        0.77230    0.89912    0.23814    1.000
    C82      C        0.70000    0.91584    0.19095    1.000
    H47      H        0.69800    0.92000    0.13680    1.000
    C83      C        0.63040    0.92646    0.22380    1.000
    H48      H        0.58230    0.93860    0.19210    1.000
    C84      C        0.84800    0.88619    0.20300    1.000
    Mn7      Mn       0.96372    0.16207    0.75055    1.000
    Mn8      Mn       0.84999    0.11581    0.55512    1.000
    Mn9      Mn       0.08870    0.14299    0.94876    1.000
    S7       S        0.09969    0.48114    0.45776    1.000
    S8       S        0.43907    0.27349    0.72467    1.000
    S9       S        0.04430    0.56833    0.84658    1.000
    O37      O        0.00590    0.24136    0.82683    1.000
    O38      O        0.98047    0.22481    0.65418    1.000
    O39      O        0.57467    0.57756    0.82103    1.000
    O40      O        0.41157    0.62787    0.74824    1.000
    O41      O        0.83567    0.19189    0.74491    1.000
    O42      O        0.46230    0.39355    0.36341    1.000
    O43      O        0.78906    0.18334    0.61511    1.000
    O44      O        0.93739    0.18789    0.53146    1.000
    O45      O        0.56384    0.53553    0.93741    1.000
    O46      O        0.33985    0.60984    0.62870    1.000
    O47      O        0.07719    0.24500    0.94680    1.000
    O48      O        0.49172    0.40282    0.49233    1.000
    O49      O        0.10162    0.52869    0.52021    1.000
    O50      O        0.05441    0.49494    0.38090    1.000
    O51      O        0.39058    0.27526    0.64765    1.000
    O52      O        0.41406    0.23296    0.78545    1.000
    O53      O        0.05500    0.59935    0.92262    1.000
    O54      O        0.97523    0.58491    0.78803    1.000
    C85      C        0.97280    0.22874    0.58080    1.000
    C86      C        0.00764    0.29004    0.54840    1.000
    C87      C        0.04910    0.33567    0.60000    1.000
    H49      H        0.05770    0.32700    0.65380    1.000
    C88      C        0.07790    0.39389    0.57255    1.000
    H50      H        0.10460    0.42480    0.60740    1.000
    C89      C        0.06622    0.40519    0.49184    1.000
    C90      C        0.02640    0.35974    0.43890    1.000
    H51      H        0.01950    0.36780    0.38500    1.000
    C91      C        0.99720    0.30242    0.46754    1.000
    H52      H        0.97020    0.27180    0.43260    1.000
    C92      C        0.20097    0.46436    0.44631    1.000
    C93      C        0.26200    0.47416    0.51039    1.000
    H53      H        0.25010    0.49190    0.55710    1.000
    C94      C        0.34050    0.45713    0.50350    1.000
    H54      H        0.38210    0.46370    0.54560    1.000
    C95      C        0.35770    0.43007    0.43312    1.000
    C96      C        0.29640    0.42287    0.36860    1.000
    H55      H        0.30860    0.40690    0.32110    1.000
    C97      C        0.21700    0.43948    0.37513    1.000
    H56      H        0.17550    0.43410    0.33270    1.000
    C98      C        0.44230    0.40756    0.42880    1.000
    C99      C        0.78100    0.19585    0.68573    1.000
    C100     C        0.69705    0.21713    0.69728    1.000
    C101     C        0.63801    0.22817    0.63092    1.000
    H57      H        0.65180    0.22370    0.58090    1.000
    C102     C        0.55970    0.24551    0.63870    1.000
    H58      H        0.52110    0.25330    0.59440    1.000
    C103     C        0.53951    0.25110    0.71412    1.000
    C104     C        0.59750    0.24024    0.78078    1.000
    H59      H        0.58340    0.24390    0.83080    1.000
    C105     C        0.67570    0.22401    0.77226    1.000
    H60      H        0.71460    0.21760    0.81670    1.000
    C106     C        0.45208    0.35503    0.76165    1.000
    C107     C        0.46910    0.40549    0.71160    1.000
    H61      H        0.46380    0.39850    0.65760    1.000
    C108     C        0.49400    0.46599    0.74370    1.000
    H62      H        0.50540    0.50020    0.71120    1.000
    C109     C        0.50190    0.47583    0.82498    1.000
    C110     C        0.47750    0.42700    0.87320    1.000
    H63      H        0.47750    0.43540    0.92640    1.000
    C111     C        0.45310    0.36598    0.84180    1.000
    H64      H        0.43770    0.33280    0.87370    1.000
    C112     C        0.54710    0.53440    0.86320    1.000
    C113     C        0.04220    0.27198    0.88425    1.000
    C114     C        0.04398    0.34580    0.87810    1.000
    C115     C        0.07520    0.38605    0.94110    1.000
    H65      H        0.09620    0.36730    0.98940    1.000
    C116     C        0.07520    0.45402    0.93240    1.000
    H66      H        0.09610    0.48080    0.97460    1.000
    C117     C        0.04380    0.48169    0.86040    1.000
    C118     C        0.01260    0.44208    0.79620    1.000
    H67      H        0.99210    0.46090    0.74780    1.000
    C119     C        0.01280    0.37474    0.80589    1.000
    H68      H        0.99170    0.34800    0.76360    1.000
    C120     C        0.13320    0.58118    0.80440    1.000
    C121     C        0.20490    0.59820    0.85240    1.000
    H69      H        0.20630    0.60330    0.90640    1.000
    C122     C        0.27410    0.60760    0.81940    1.000
    H70      H        0.32250    0.61850    0.85150    1.000
    C123     C        0.27230    0.60088    0.73814    1.000
    C124     C        0.20000    0.58416    0.69095    1.000
    H71      H        0.19800    0.58000    0.63680    1.000
    C125     C        0.13040    0.57354    0.72380    1.000
    H72      H        0.08230    0.56140    0.69210    1.000
    C126     C        0.34800    0.61381    0.70300    1.000
    Mn10     Mn       0.53628    0.66207    0.74945    1.000
    Mn11     Mn       0.65001    0.61581    0.94488    1.000
    Mn12     Mn       0.41130    0.64299    0.55124    1.000
    S10      S        0.40031    0.98114    0.04224    1.000
    S11      S        0.06093    0.77349    0.77533    1.000
    S12      S        0.45570    0.06833    0.65342    1.000
    O55      O        0.49410    0.74136    0.67317    1.000
    O56      O        0.51953    0.72481    0.84582    1.000
    O57      O        0.92533    0.07756    0.67897    1.000
    O58      O        0.08843    0.12787    0.75176    1.000
    O59      O        0.66433    0.69189    0.75509    1.000
    O60      O        0.03770    0.89355    0.13659    1.000
    O61      O        0.71094    0.68334    0.88489    1.000
    O62      O        0.56261    0.68789    0.96854    1.000
    O63      O        0.93616    0.03553    0.56259    1.000
    O64      O        0.16015    0.10984    0.87130    1.000
    O65      O        0.42281    0.74500    0.55320    1.000
    O66      O        0.00828    0.90282    0.00767    1.000
    O67      O        0.39838    0.02869    0.97979    1.000
    O68      O        0.44559    0.99494    0.11910    1.000
    O69      O        0.10942    0.77526    0.85235    1.000
    O70      O        0.08594    0.73296    0.71455    1.000
    O71      O        0.44500    0.09935    0.57738    1.000
    O72      O        0.52477    0.08491    0.71197    1.000
    C127     C        0.52720    0.72874    0.91920    1.000
    C128     C        0.49236    0.79004    0.95160    1.000
    C129     C        0.45090    0.83567    0.90000    1.000
    H73      H        0.44230    0.82700    0.84620    1.000
    C130     C        0.42210    0.89389    0.92745    1.000
    H74      H        0.39540    0.92480    0.89260    1.000
    C131     C        0.43378    0.90519    0.00816    1.000
    C132     C        0.47360    0.85974    0.06110    1.000
    H75      H        0.48050    0.86780    0.11500    1.000
    C133     C        0.50280    0.80242    0.03246    1.000
    H76      H        0.52980    0.77180    0.06740    1.000
    C134     C        0.29903    0.96436    0.05369    1.000
    C135     C        0.23800    0.97416    0.98961    1.000
    H77      H        0.24990    0.99190    0.94290    1.000
    C136     C        0.15950    0.95713    0.99650    1.000
    H78      H        0.11790    0.96370    0.95440    1.000
    C137     C        0.14230    0.93007    0.06688    1.000
    C138     C        0.20360    0.92287    0.13140    1.000
    H79      H        0.19140    0.90690    0.17890    1.000
    C139     C        0.28300    0.93948    0.12487    1.000
    H80      H        0.32450    0.93410    0.16730    1.000
    C140     C        0.05770    0.90756    0.07120    1.000
    C141     C        0.71900    0.69585    0.81427    1.000
    C142     C        0.80295    0.71713    0.80272    1.000
    C143     C        0.86199    0.72817    0.86908    1.000
    H81      H        0.84820    0.72370    0.91910    1.000
    C144     C        0.94030    0.74551    0.86130    1.000
    H82      H        0.97890    0.75330    0.90560    1.000
    C145     C        0.96049    0.75110    0.78588    1.000
    C146     C        0.90250    0.74024    0.71922    1.000
    H83      H        0.91660    0.74390    0.66920    1.000
    C147     C        0.82430    0.72401    0.72774    1.000
    H84      H        0.78540    0.71760    0.68330    1.000
    C148     C        0.04792    0.85503    0.73835    1.000
    C149     C        0.03090    0.90549    0.78840    1.000
    H85      H        0.03620    0.89850    0.84240    1.000
    C150     C        0.00600    0.96599    0.75630    1.000
    H86      H        0.99460    0.00020    0.78880    1.000
    C151     C        0.99810    0.97583    0.67502    1.000
    C152     C        0.02250    0.92700    0.62680    1.000
    H87      H        0.02250    0.93540    0.57360    1.000
    C153     C        0.04690    0.86598    0.65820    1.000
    H88      H        0.06230    0.83280    0.62630    1.000
    C154     C        0.95290    0.03440    0.63680    1.000
    C155     C        0.45780    0.77198    0.61575    1.000
    C156     C        0.45602    0.84580    0.62190    1.000
    C157     C        0.42480    0.88605    0.55890    1.000
    H89      H        0.40380    0.86730    0.51060    1.000
    C158     C        0.42480    0.95402    0.56760    1.000
    H90      H        0.40390    0.98080    0.52540    1.000
    C159     C        0.45620    0.98169    0.63960    1.000
    C160     C        0.48740    0.94208    0.70380    1.000
    H91      H        0.50790    0.96090    0.75220    1.000
    C161     C        0.48720    0.87474    0.69411    1.000
    H92      H        0.50830    0.84800    0.73640    1.000
    C162     C        0.36680    0.08118    0.69560    1.000
    C163     C        0.29510    0.09820    0.64760    1.000
    H93      H        0.29370    0.10330    0.59360    1.000
    C164     C        0.22590    0.10760    0.68060    1.000
    H94      H        0.17750    0.11850    0.64850    1.000
    C165     C        0.22770    0.10088    0.76186    1.000
    C166     C        0.30000    0.08416    0.80905    1.000
    H95      H        0.30200    0.08000    0.86320    1.000
    C167     C        0.36960    0.07354    0.77620    1.000
    H96      H        0.41770    0.06140    0.80790    1.000
    C168     C        0.15200    0.11381    0.79700    1.000
