# CIF file generated by openbabel 3.1.0, see https://openbabel.org
data_I
_chemical_name_common 'image0'
_cell_length_a 20.1244
_cell_length_b 12.6619
_cell_length_c 21.1518
_cell_angle_alpha 90
_cell_angle_beta 110.946
_cell_angle_gamma 90
_space_group_name_H-M_alt 'P 1'
_space_group_name_Hall 'P 1'
loop_
    _symmetry_equiv_pos_as_xyz
    x,y,z
loop_
    _atom_site_label
    _atom_site_type_symbol
    _atom_site_fract_x
    _atom_site_fract_y
    _atom_site_fract_z
    _atom_site_occupancy
    C1       C        0.07430    0.99060    0.93280    1.000
    C2       C        0.13350    0.91970    0.92830    1.000
    H1       H        0.14340    0.86560    0.96220    1.000
    H2       H        0.11880    0.88780    0.88430    1.000
    H3       H        0.17550    0.96110    0.93560    1.000
    O1       O        0.50530    0.12900    0.56650    1.000
    O2       O        0.55530    0.83820    0.72780    1.000
    O3       O        0.67540    0.85660    0.56320    1.000
    O4       O        0.64890    0.05550    0.60950    1.000
    O5       O        0.58350    0.04660    0.69670    1.000
    O6       O        0.67260    0.90040    0.69430    1.000
    O7       O        0.76980    0.02510    0.59080    1.000
    O8       O        0.62310    0.26230    0.59240    1.000
    O9       O        0.55720    0.25430    0.68200    1.000
    O10      O        0.59740    0.00470    0.82280    1.000
    O11      O        0.69000    0.85240    0.82380    1.000
    O12      O        0.79640    0.86300    0.67810    1.000
    O13      O        0.68790    0.21030    0.71420    1.000
    O14      O        0.71580    0.04400    0.80890    1.000
    O15      O        0.78650    0.05090    0.71560    1.000
    O16      O        0.76210    0.22440    0.62020    1.000
    O17      O        0.65210    0.40280    0.69130    1.000
    O18      O        0.57770    0.42300    0.77730    1.000
    O19      O        0.61850    0.21030    0.81300    1.000
    O20      O        0.62220    0.13120    0.93730    1.000
    O21      O        0.72340    0.98910    0.92470    1.000
    O22      O        0.81360    0.81530    0.93990    1.000
    O23      O        0.81560    0.88190    0.81020    1.000
    O24      O        0.93280    0.81980    0.77330    1.000
    O25      O        0.89680    0.00770    0.69250    1.000
    O26      O        0.88370    0.21440    0.72120    1.000
    O27      O        0.79260    0.36080    0.71970    1.000
    O28      O        0.71670    0.34920    0.82350    1.000
    O29      O        0.74210    0.19830    0.91090    1.000
    O30      O        0.85260    0.01390    0.91360    1.000
    O31      O        0.92230    0.01580    0.82560    1.000
    O32      O        0.82180    0.20310    0.82250    1.000
    O33      O        0.93480    0.42030    0.77210    1.000
    O34      O        0.85690    0.38920    0.85660    1.000
    O35      O        0.79700    0.39790    0.95590    1.000
    O36      O        0.88770    0.24110    0.95480    1.000
    O37      O        0.95970    0.24730    0.85350    1.000
    O38      O        0.03210    0.95700    0.96200    1.000
    O39      O        0.06650    0.07970    0.90710    1.000
    O40      O        0.17560    0.10350    0.81910    1.000
    O41      O        0.36740    0.19890    0.61040    1.000
    O42      O        0.68470    0.87820    0.01970    1.000
    Na1      Na       0.40700    0.25550    0.52060    1.000
    K1       K        0.80939    0.76290    0.06820    1.000
    K2       K        0.47163    0.13150    0.73855    1.000
    Ge1      Ge       0.75503    0.12850    0.76695    1.000
    Y1       Y        0.95335    0.11049    0.92627    1.000
    W1       W        0.58627    0.15086    0.63110    1.000
    W2       W        0.62305    0.92723    0.75431    1.000
    W3       W        0.71521    0.93871    0.63011    1.000
    W4       W        0.83848    0.12490    0.64702    1.000
    W5       W        0.71164    0.33549    0.64788    1.000
    W6       W        0.63007    0.32854    0.76040    1.000
    W7       W        0.66266    0.10557    0.87993    1.000
    W8       W        0.78417    0.92035    0.88336    1.000
    W9       W        0.87471    0.92614    0.76152    1.000
    W10      W        0.88939    0.31811    0.79169    1.000
    W11      W        0.80866    0.30278    0.90287    1.000
    Rb1      Rb       0.02904    0.11838    0.76864    1.000
    Rb2      Rb       0.67309    0.34138    0.98986    1.000
    C3       C        0.92570    0.49060    0.56720    1.000
    C4       C        0.86650    0.41970    0.57170    1.000
    H4       H        0.85660    0.36560    0.53780    1.000
    H5       H        0.88120    0.38780    0.61570    1.000
    H6       H        0.82450    0.46110    0.56440    1.000
    O43      O        0.49470    0.62900    0.93350    1.000
    O44      O        0.44470    0.33820    0.77220    1.000
    O45      O        0.32460    0.35660    0.93680    1.000
    O46      O        0.35110    0.55550    0.89050    1.000
    O47      O        0.41650    0.54660    0.80330    1.000
    O48      O        0.32740    0.40040    0.80570    1.000
    O49      O        0.23020    0.52510    0.90920    1.000
    O50      O        0.37690    0.76230    0.90760    1.000
    O51      O        0.44280    0.75430    0.81800    1.000
    O52      O        0.40260    0.50470    0.67720    1.000
    O53      O        0.31000    0.35240    0.67620    1.000
    O54      O        0.20360    0.36300    0.82190    1.000
    O55      O        0.31210    0.71030    0.78580    1.000
    O56      O        0.28420    0.54400    0.69110    1.000
    O57      O        0.21350    0.55090    0.78440    1.000
    O58      O        0.23790    0.72440    0.87980    1.000
    O59      O        0.34790    0.90280    0.80870    1.000
    O60      O        0.42230    0.92300    0.72270    1.000
    O61      O        0.38150    0.71030    0.68700    1.000
    O62      O        0.37780    0.63120    0.56270    1.000
    O63      O        0.27660    0.48910    0.57530    1.000
    O64      O        0.18640    0.31530    0.56010    1.000
    O65      O        0.18440    0.38190    0.68980    1.000
    O66      O        0.06720    0.31980    0.72670    1.000
    O67      O        0.10320    0.50770    0.80750    1.000
    O68      O        0.11630    0.71440    0.77880    1.000
    O69      O        0.20740    0.86080    0.78030    1.000
    O70      O        0.28330    0.84920    0.67650    1.000
    O71      O        0.25790    0.69830    0.58910    1.000
    O72      O        0.14740    0.51390    0.58640    1.000
    O73      O        0.07770    0.51580    0.67440    1.000
    O74      O        0.17820    0.70310    0.67750    1.000
    O75      O        0.06520    0.92030    0.72790    1.000
    O76      O        0.14310    0.88920    0.64340    1.000
    O77      O        0.20300    0.89790    0.54410    1.000
    O78      O        0.11230    0.74110    0.54520    1.000
    O79      O        0.04030    0.74730    0.64650    1.000
    O80      O        0.96790    0.45700    0.53800    1.000
    O81      O        0.93350    0.57970    0.59290    1.000
    O82      O        0.82440    0.60350    0.68090    1.000
    O83      O        0.63260    0.69890    0.88960    1.000
    O84      O        0.31530    0.37820    0.48030    1.000
    Na2      Na       0.59300    0.75550    0.97940    1.000
    K3       K        0.19061    0.26290    0.43180    1.000
    K4       K        0.52837    0.63150    0.76145    1.000
    Ge2      Ge       0.24497    0.62850    0.73305    1.000
    Y2       Y        0.04665    0.61049    0.57373    1.000
    W12      W        0.41373    0.65086    0.86890    1.000
    W13      W        0.37695    0.42723    0.74569    1.000
    W14      W        0.28479    0.43871    0.86989    1.000
    W15      W        0.16152    0.62490    0.85298    1.000
    W16      W        0.28836    0.83549    0.85212    1.000
    W17      W        0.36993    0.82854    0.73960    1.000
    W18      W        0.33734    0.60557    0.62007    1.000
    W19      W        0.21583    0.42035    0.61664    1.000
    W20      W        0.12529    0.42614    0.73848    1.000
    W21      W        0.11061    0.81811    0.70831    1.000
    W22      W        0.19134    0.80278    0.59713    1.000
    Rb3      Rb       0.97096    0.61838    0.73136    1.000
    Rb4      Rb       0.32691    0.84138    0.51014    1.000
    C5       C        0.92570    0.00940    0.06720    1.000
    C6       C        0.86650    0.08030    0.07170    1.000
    H7       H        0.85660    0.13440    0.03780    1.000
    H8       H        0.88120    0.11220    0.11570    1.000
    H9       H        0.82450    0.03890    0.06440    1.000
    O85      O        0.49470    0.87100    0.43350    1.000
    O86      O        0.44470    0.16180    0.27220    1.000
    O87      O        0.32460    0.14340    0.43680    1.000
    O88      O        0.35110    0.94450    0.39050    1.000
    O89      O        0.41650    0.95340    0.30330    1.000
    O90      O        0.32740    0.09960    0.30570    1.000
    O91      O        0.23020    0.97490    0.40920    1.000
    O92      O        0.37690    0.73770    0.40760    1.000
    O93      O        0.44280    0.74570    0.31800    1.000
    O94      O        0.40260    0.99530    0.17720    1.000
    O95      O        0.31000    0.14760    0.17620    1.000
    O96      O        0.20360    0.13700    0.32190    1.000
    O97      O        0.31210    0.78970    0.28580    1.000
    O98      O        0.28420    0.95600    0.19110    1.000
    O99      O        0.21350    0.94910    0.28440    1.000
    O100     O        0.23790    0.77560    0.37980    1.000
    O101     O        0.34790    0.59720    0.30870    1.000
    O102     O        0.42230    0.57700    0.22270    1.000
    O103     O        0.38150    0.78970    0.18700    1.000
    O104     O        0.37780    0.86880    0.06270    1.000
    O105     O        0.27660    0.01090    0.07530    1.000
    O106     O        0.18640    0.18470    0.06010    1.000
    O107     O        0.18440    0.11810    0.18980    1.000
    O108     O        0.06720    0.18020    0.22670    1.000
    O109     O        0.10320    0.99230    0.30750    1.000
    O110     O        0.11630    0.78560    0.27880    1.000
    O111     O        0.20740    0.63920    0.28030    1.000
    O112     O        0.28330    0.65080    0.17650    1.000
    O113     O        0.25790    0.80170    0.08910    1.000
    O114     O        0.14740    0.98610    0.08640    1.000
    O115     O        0.07770    0.98420    0.17440    1.000
    O116     O        0.17820    0.79690    0.17750    1.000
    O117     O        0.06520    0.57970    0.22790    1.000
    O118     O        0.14310    0.61080    0.14340    1.000
    O119     O        0.20300    0.60210    0.04410    1.000
    O120     O        0.11230    0.75890    0.04520    1.000
    O121     O        0.04030    0.75270    0.14650    1.000
    O122     O        0.96790    0.04300    0.03800    1.000
    O123     O        0.93350    0.92030    0.09290    1.000
    O124     O        0.82440    0.89650    0.18090    1.000
    O125     O        0.63260    0.80110    0.38960    1.000
    O126     O        0.31530    0.12180    0.98030    1.000
    Na3      Na       0.59300    0.74450    0.47940    1.000
    K5       K        0.19061    0.23710    0.93180    1.000
    K6       K        0.52837    0.86850    0.26145    1.000
    Ge3      Ge       0.24497    0.87150    0.23305    1.000
    Y3       Y        0.04665    0.88951    0.07373    1.000
    W23      W        0.41373    0.84914    0.36890    1.000
    W24      W        0.37695    0.07277    0.24569    1.000
    W25      W        0.28479    0.06129    0.36989    1.000
    W26      W        0.16152    0.87510    0.35298    1.000
    W27      W        0.28836    0.66451    0.35212    1.000
    W28      W        0.36993    0.67146    0.23960    1.000
    W29      W        0.33734    0.89443    0.12007    1.000
    W30      W        0.21583    0.07965    0.11664    1.000
    W31      W        0.12529    0.07386    0.23848    1.000
    W32      W        0.11061    0.68189    0.20831    1.000
    W33      W        0.19134    0.69722    0.09713    1.000
    Rb5      Rb       0.97096    0.88162    0.23136    1.000
    Rb6      Rb       0.32691    0.65862    0.01014    1.000
    C7       C        0.07430    0.50940    0.43280    1.000
    C8       C        0.13350    0.58030    0.42830    1.000
    H10      H        0.14340    0.63440    0.46220    1.000
    H11      H        0.11880    0.61220    0.38430    1.000
    H12      H        0.17550    0.53890    0.43560    1.000
    O127     O        0.50530    0.37100    0.06650    1.000
    O128     O        0.55530    0.66180    0.22780    1.000
    O129     O        0.67540    0.64340    0.06320    1.000
    O130     O        0.64890    0.44450    0.10950    1.000
    O131     O        0.58350    0.45340    0.19670    1.000
    O132     O        0.67260    0.59960    0.19430    1.000
    O133     O        0.76980    0.47490    0.09080    1.000
    O134     O        0.62310    0.23770    0.09240    1.000
    O135     O        0.55720    0.24570    0.18200    1.000
    O136     O        0.59740    0.49530    0.32280    1.000
    O137     O        0.69000    0.64760    0.32380    1.000
    O138     O        0.79640    0.63700    0.17810    1.000
    O139     O        0.68790    0.28970    0.21420    1.000
    O140     O        0.71580    0.45600    0.30890    1.000
    O141     O        0.78650    0.44910    0.21560    1.000
    O142     O        0.76210    0.27560    0.12020    1.000
    O143     O        0.65210    0.09720    0.19130    1.000
    O144     O        0.57770    0.07700    0.27730    1.000
    O145     O        0.61850    0.28970    0.31300    1.000
    O146     O        0.62220    0.36880    0.43730    1.000
    O147     O        0.72340    0.51090    0.42470    1.000
    O148     O        0.81360    0.68470    0.43990    1.000
    O149     O        0.81560    0.61810    0.31020    1.000
    O150     O        0.93280    0.68020    0.27330    1.000
    O151     O        0.89680    0.49230    0.19250    1.000
    O152     O        0.88370    0.28560    0.22120    1.000
    O153     O        0.79260    0.13920    0.21970    1.000
    O154     O        0.71670    0.15080    0.32350    1.000
    O155     O        0.74210    0.30170    0.41090    1.000
    O156     O        0.85260    0.48610    0.41360    1.000
    O157     O        0.92230    0.48420    0.32560    1.000
    O158     O        0.82180    0.29690    0.32250    1.000
    O159     O        0.93480    0.07970    0.27210    1.000
    O160     O        0.85690    0.11080    0.35660    1.000
    O161     O        0.79700    0.10210    0.45590    1.000
    O162     O        0.88770    0.25890    0.45480    1.000
    O163     O        0.95970    0.25270    0.35350    1.000
    O164     O        0.03210    0.54300    0.46200    1.000
    O165     O        0.06650    0.42030    0.40710    1.000
    O166     O        0.17560    0.39650    0.31910    1.000
    O167     O        0.36740    0.30110    0.11040    1.000
    O168     O        0.68470    0.62180    0.51970    1.000
    Na4      Na       0.40700    0.24450    0.02060    1.000
    K7       K        0.80939    0.73710    0.56820    1.000
    K8       K        0.47163    0.36850    0.23855    1.000
    Ge4      Ge       0.75503    0.37150    0.26695    1.000
    Y4       Y        0.95335    0.38951    0.42627    1.000
    W34      W        0.58627    0.34914    0.13110    1.000
    W35      W        0.62305    0.57277    0.25431    1.000
    W36      W        0.71521    0.56129    0.13011    1.000
    W37      W        0.83848    0.37510    0.14702    1.000
    W38      W        0.71164    0.16451    0.14788    1.000
    W39      W        0.63007    0.17146    0.26040    1.000
    W40      W        0.66266    0.39443    0.37993    1.000
    W41      W        0.78417    0.57965    0.38336    1.000
    W42      W        0.87471    0.57386    0.26152    1.000
    W43      W        0.88939    0.18189    0.29169    1.000
    W44      W        0.80866    0.19722    0.40287    1.000
    Rb7      Rb       0.02904    0.38162    0.26864    1.000
    Rb8      Rb       0.67309    0.15862    0.48986    1.000
