# CIF file generated by openbabel 3.1.0, see https://openbabel.org
data_I
_chemical_name_common 'image0'
_cell_length_a 16.1369
_cell_length_b 12.8809
_cell_length_c 22.4044
_cell_angle_alpha 90
_cell_angle_beta 106.294
_cell_angle_gamma 90
_space_group_name_H-M_alt 'P 1'
_space_group_name_Hall 'P 1'
loop_
    _symmetry_equiv_pos_as_xyz
    x,y,z
loop_
    _atom_site_label
    _atom_site_type_symbol
    _atom_site_fract_x
    _atom_site_fract_y
    _atom_site_fract_z
    _atom_site_occupancy
    Mn1      Mn       0.80005    0.85022    0.35910    1.000
    Mn2      Mn       0.57817    0.93468    0.28664    1.000
    C1       C        0.78042    0.78621    0.48724    1.000
    C2       C        0.83244    0.78363    0.55470    1.000
    C3       C        0.79464    0.77978    0.60343    1.000
    H1       H        0.73490    0.77660    0.59540    1.000
    C4       C        0.84714    0.78083    0.66373    1.000
    H2       H        0.82350    0.77920    0.69710    1.000
    C5       C        0.93562    0.78429    0.67353    1.000
    N1       N        0.97391    0.78765    0.62794    1.000
    C6       C        0.25390    0.37023    0.70403    1.000
    C7       C        0.21800    0.47257    0.71702    1.000
    C8       C        0.12962    0.48663    0.70462    1.000
    H3       H        0.09240    0.43140    0.69000    1.000
    C9       C        0.09686    0.58140    0.71384    1.000
    H4       H        0.03760    0.59170    0.70530    1.000
    C10      C        0.15431    0.66137    0.73611    1.000
    C11      C        0.26963    0.55770    0.73809    1.000
    H5       H        0.32900    0.54970    0.74580    1.000
    C12      C        0.72662    0.07180    0.37241    1.000
    C13      C        0.75334    0.18157    0.39140    1.000
    C14      C        0.83929    0.21010    0.40960    1.000
    H6       H        0.88200    0.16070    0.41170    1.000
    C15      C        0.86152    0.31190    0.42456    1.000
    H7       H        0.91900    0.33280    0.43520    1.000
    C16      C        0.79687    0.38215    0.42339    1.000
    N2       N        0.71299    0.35725    0.40647    1.000
    C17      C        0.72739    0.55451    0.72464    1.000
    C18      C        0.76389    0.52965    0.67134    1.000
    C19      C        0.71411    0.50960    0.61169    1.000
    H8       H        0.65450    0.50300    0.60320    1.000
    C20      C        0.75350    0.49950    0.56455    1.000
    H9       H        0.72120    0.48590    0.52390    1.000
    C21      C        0.84150    0.51004    0.57946    1.000
    N3       N        0.89219    0.52238    0.63711    1.000
    C22      C        0.99016    0.77590    0.40289    1.000
    H10      H        0.96220    0.71790    0.41260    1.000
    C23      C        0.07841    0.77340    0.41596    1.000
    H11      H        0.10850    0.71440    0.43390    1.000
    C24      C        0.12263    0.85770    0.40268    1.000
    C25      C        0.07308    0.94060    0.37463    1.000
    H12      H        0.09950    0.99870    0.36350    1.000
    C26      C        0.98481    0.93820    0.36294    1.000
    H13      H        0.95320    0.99580    0.34440    1.000
    C27      C        0.22005    0.85950    0.42005    1.000
    H14      H        0.23870    0.86120    0.38250    1.000
    H15      H        0.24250    0.79650    0.44250    1.000
    C28      C        0.25658    0.95280    0.45997    1.000
    H16      H        0.22790    0.95880    0.49250    1.000
    H17      H        0.24300    0.01470    0.43450    1.000
    C29      C        0.35373    0.94920    0.49001    1.000
    H18      H        0.37080    0.00990    0.51630    1.000
    H19      H        0.36760    0.88820    0.51630    1.000
    C30      C        0.40451    0.94630    0.44289    1.000
    C31      C        0.43552    0.85490    0.42618    1.000
    H20      H        0.42690    0.79310    0.44500    1.000
    C32      C        0.47961    0.85460    0.38134    1.000
    H21      H        0.49970    0.79160    0.37070    1.000
    C33      C        0.46523    0.02870    0.36975    1.000
    H22      H        0.47560    0.08980    0.35090    1.000
    C34      C        0.42034    0.03510    0.41360    1.000
    H23      H        0.40080    0.09900    0.42340    1.000
    N4       N        0.94244    0.85718    0.37702    1.000
    N5       N        0.49465    0.94015    0.35279    1.000
    C35      C        0.92115    0.78790    0.57006    1.000
    H24      H        0.94640    0.79130    0.53760    1.000
    N6       N        0.23996    0.65155    0.74821    1.000
    C36      C        0.69293    0.25810    0.38980    1.000
    H25      H        0.63480    0.24010    0.37640    1.000
    C37      C        0.85234    0.53256    0.68151    1.000
    H26      H        0.88650    0.54230    0.72210    1.000
    S1       S        0.00087    0.77986    0.75221    1.000
    S2       S        0.12468    0.79048    0.74895    1.000
    S3       S        0.81891    0.51657    0.44070    1.000
    S4       S        0.90559    0.51093    0.52614    1.000
    O1       O        0.70009    0.79141    0.47379    1.000
    O2       O        0.82376    0.78344    0.44863    1.000
    O3       O        0.77978    0.00190    0.39438    1.000
    O4       O        0.65214    0.05990    0.33610    1.000
    O5       O        0.20144    0.29716    0.68840    1.000
    O6       O        0.33326    0.36377    0.70911    1.000
    O7       O        0.78116    0.56900    0.77523    1.000
    O8       O        0.64759    0.56080    0.71501    1.000
    O9       O        0.65753    0.81455    0.34887    1.000
    H27      H        0.65220    0.81110    0.38550    1.000
    H28      H        0.65200    0.75450    0.33250    1.000
    Mn3      Mn       0.19995    0.35022    0.14090    1.000
    Mn4      Mn       0.42183    0.43468    0.21336    1.000
    C38      C        0.21958    0.28621    0.01276    1.000
    C39      C        0.16756    0.28363    0.94530    1.000
    C40      C        0.20536    0.27978    0.89657    1.000
    H29      H        0.26510    0.27660    0.90460    1.000
    C41      C        0.15286    0.28083    0.83627    1.000
    H30      H        0.17650    0.27920    0.80290    1.000
    C42      C        0.06438    0.28429    0.82647    1.000
    N7       N        0.02609    0.28765    0.87206    1.000
    C43      C        0.74610    0.87023    0.79597    1.000
    C44      C        0.78200    0.97257    0.78298    1.000
    C45      C        0.87038    0.98663    0.79538    1.000
    H31      H        0.90760    0.93140    0.81000    1.000
    C46      C        0.90314    0.08140    0.78616    1.000
    H32      H        0.96240    0.09170    0.79470    1.000
    C47      C        0.84569    0.16137    0.76389    1.000
    C48      C        0.73037    0.05770    0.76191    1.000
    H33      H        0.67100    0.04970    0.75420    1.000
    C49      C        0.27338    0.57180    0.12759    1.000
    C50      C        0.24666    0.68157    0.10860    1.000
    C51      C        0.16071    0.71010    0.09040    1.000
    H34      H        0.11800    0.66070    0.08830    1.000
    C52      C        0.13848    0.81190    0.07544    1.000
    H35      H        0.08100    0.83280    0.06480    1.000
    C53      C        0.20313    0.88215    0.07661    1.000
    N8       N        0.28701    0.85725    0.09353    1.000
    C54      C        0.27261    0.05451    0.77536    1.000
    C55      C        0.23611    0.02965    0.82866    1.000
    C56      C        0.28589    0.00960    0.88831    1.000
    H36      H        0.34550    0.00300    0.89680    1.000
    C57      C        0.24650    0.99950    0.93545    1.000
    H37      H        0.27880    0.98590    0.97610    1.000
    C58      C        0.15850    0.01004    0.92054    1.000
    N9       N        0.10781    0.02238    0.86289    1.000
    C59      C        0.00984    0.27590    0.09711    1.000
    H38      H        0.03780    0.21790    0.08740    1.000
    C60      C        0.92159    0.27340    0.08404    1.000
    H39      H        0.89150    0.21440    0.06610    1.000
    C61      C        0.87737    0.35770    0.09732    1.000
    C62      C        0.92692    0.44060    0.12537    1.000
    H40      H        0.90050    0.49870    0.13650    1.000
    C63      C        0.01519    0.43820    0.13706    1.000
    H41      H        0.04680    0.49580    0.15560    1.000
    C64      C        0.77995    0.35950    0.07995    1.000
    H42      H        0.76130    0.36120    0.11750    1.000
    H43      H        0.75750    0.29650    0.05750    1.000
    C65      C        0.74342    0.45280    0.04003    1.000
    H44      H        0.77210    0.45880    0.00750    1.000
    H45      H        0.75700    0.51470    0.06550    1.000
    C66      C        0.64627    0.44920    0.00999    1.000
    H46      H        0.62920    0.50990    0.98370    1.000
    H47      H        0.63240    0.38820    0.98370    1.000
    C67      C        0.59549    0.44630    0.05711    1.000
    C68      C        0.56448    0.35490    0.07382    1.000
    H48      H        0.57310    0.29310    0.05500    1.000
    C69      C        0.52039    0.35460    0.11866    1.000
    H49      H        0.50030    0.29160    0.12930    1.000
    C70      C        0.53477    0.52870    0.13025    1.000
    H50      H        0.52440    0.58980    0.14910    1.000
    C71      C        0.57966    0.53510    0.08640    1.000
    H51      H        0.59920    0.59900    0.07660    1.000
    N10      N        0.05756    0.35718    0.12298    1.000
    N11      N        0.50535    0.44015    0.14721    1.000
    C72      C        0.07885    0.28790    0.92994    1.000
    H52      H        0.05360    0.29130    0.96240    1.000
    N12      N        0.76004    0.15155    0.75179    1.000
    C73      C        0.30707    0.75810    0.11020    1.000
    H53      H        0.36520    0.74010    0.12360    1.000
    C74      C        0.14766    0.03256    0.81849    1.000
    H54      H        0.11350    0.04230    0.77790    1.000
    S5       S        0.99913    0.27986    0.74779    1.000
    S6       S        0.87532    0.29048    0.75105    1.000
    S7       S        0.18109    0.01657    0.05930    1.000
    S8       S        0.09441    0.01093    0.97386    1.000
    O10      O        0.29991    0.29141    0.02621    1.000
    O11      O        0.17624    0.28344    0.05137    1.000
    O12      O        0.22022    0.50190    0.10562    1.000
    O13      O        0.34786    0.55990    0.16390    1.000
    O14      O        0.79856    0.79716    0.81160    1.000
    O15      O        0.66674    0.86377    0.79089    1.000
    O16      O        0.21884    0.06900    0.72477    1.000
    O17      O        0.35241    0.06080    0.78499    1.000
    O18      O        0.34247    0.31455    0.15113    1.000
    H55      H        0.34780    0.31110    0.11450    1.000
    H56      H        0.34800    0.25450    0.16750    1.000
    Mn5      Mn       0.19995    0.14978    0.64090    1.000
    Mn6      Mn       0.42183    0.06532    0.71336    1.000
    C75      C        0.21958    0.21379    0.51276    1.000
    C76      C        0.16756    0.21637    0.44530    1.000
    C77      C        0.20536    0.22022    0.39657    1.000
    H57      H        0.26510    0.22340    0.40460    1.000
    C78      C        0.15286    0.21917    0.33627    1.000
    H58      H        0.17650    0.22080    0.30290    1.000
    C79      C        0.06438    0.21571    0.32647    1.000
    N13      N        0.02609    0.21235    0.37206    1.000
    C80      C        0.74610    0.62977    0.29597    1.000
    C81      C        0.78200    0.52743    0.28298    1.000
    C82      C        0.87038    0.51337    0.29538    1.000
    H59      H        0.90760    0.56860    0.31000    1.000
    C83      C        0.90314    0.41860    0.28616    1.000
    H60      H        0.96240    0.40830    0.29470    1.000
    C84      C        0.84569    0.33863    0.26389    1.000
    C85      C        0.73037    0.44230    0.26191    1.000
    H61      H        0.67100    0.45030    0.25420    1.000
    C86      C        0.27338    0.92820    0.62759    1.000
    C87      C        0.24666    0.81843    0.60860    1.000
    C88      C        0.16071    0.78990    0.59040    1.000
    H62      H        0.11800    0.83930    0.58830    1.000
    C89      C        0.13848    0.68810    0.57544    1.000
    H63      H        0.08100    0.66720    0.56480    1.000
    C90      C        0.20313    0.61785    0.57661    1.000
    N14      N        0.28701    0.64275    0.59353    1.000
    C91      C        0.27261    0.44549    0.27536    1.000
    C92      C        0.23611    0.47035    0.32866    1.000
    C93      C        0.28589    0.49040    0.38831    1.000
    H64      H        0.34550    0.49700    0.39680    1.000
    C94      C        0.24650    0.50050    0.43545    1.000
    H65      H        0.27880    0.51410    0.47610    1.000
    C95      C        0.15850    0.48996    0.42054    1.000
    N15      N        0.10781    0.47762    0.36289    1.000
    C96      C        0.00984    0.22410    0.59711    1.000
    H66      H        0.03780    0.28210    0.58740    1.000
    C97      C        0.92159    0.22660    0.58404    1.000
    H67      H        0.89150    0.28560    0.56610    1.000
    C98      C        0.87737    0.14230    0.59732    1.000
    C99      C        0.92692    0.05940    0.62537    1.000
    H68      H        0.90050    0.00130    0.63650    1.000
    C100     C        0.01519    0.06180    0.63706    1.000
    H69      H        0.04680    0.00420    0.65560    1.000
    C101     C        0.77995    0.14050    0.57995    1.000
    H70      H        0.76130    0.13880    0.61750    1.000
    H71      H        0.75750    0.20350    0.55750    1.000
    C102     C        0.74342    0.04720    0.54003    1.000
    H72      H        0.77210    0.04120    0.50750    1.000
    H73      H        0.75700    0.98530    0.56550    1.000
    C103     C        0.64627    0.05080    0.50999    1.000
    H74      H        0.62920    0.99010    0.48370    1.000
    H75      H        0.63240    0.11180    0.48370    1.000
    C104     C        0.59549    0.05370    0.55711    1.000
    C105     C        0.56448    0.14510    0.57382    1.000
    H76      H        0.57310    0.20690    0.55500    1.000
    C106     C        0.52039    0.14540    0.61866    1.000
    H77      H        0.50030    0.20840    0.62930    1.000
    C107     C        0.53477    0.97130    0.63025    1.000
    H78      H        0.52440    0.91020    0.64910    1.000
    C108     C        0.57966    0.96490    0.58640    1.000
    H79      H        0.59920    0.90100    0.57660    1.000
    N16      N        0.05756    0.14282    0.62298    1.000
    N17      N        0.50535    0.05985    0.64721    1.000
    C109     C        0.07885    0.21210    0.42994    1.000
    H80      H        0.05360    0.20870    0.46240    1.000
    N18      N        0.76004    0.34845    0.25179    1.000
    C110     C        0.30707    0.74190    0.61020    1.000
    H81      H        0.36520    0.75990    0.62360    1.000
    C111     C        0.14766    0.46744    0.31849    1.000
    H82      H        0.11350    0.45770    0.27790    1.000
    S9       S        0.99913    0.22014    0.24779    1.000
    S10      S        0.87532    0.20952    0.25105    1.000
    S11      S        0.18109    0.48343    0.55930    1.000
    S12      S        0.09441    0.48907    0.47386    1.000
    O19      O        0.29991    0.20859    0.52621    1.000
    O20      O        0.17624    0.21656    0.55137    1.000
    O21      O        0.22022    0.99810    0.60562    1.000
    O22      O        0.34786    0.94010    0.66390    1.000
    O23      O        0.79856    0.70284    0.31160    1.000
    O24      O        0.66674    0.63623    0.29089    1.000
    O25      O        0.21884    0.43100    0.22477    1.000
    O26      O        0.35241    0.43920    0.28499    1.000
    O27      O        0.34247    0.18545    0.65113    1.000
    H83      H        0.34780    0.18890    0.61450    1.000
    H84      H        0.34800    0.24550    0.66750    1.000
    Mn7      Mn       0.80005    0.64978    0.85910    1.000
    Mn8      Mn       0.57817    0.56532    0.78664    1.000
    C112     C        0.78042    0.71379    0.98724    1.000
    C113     C        0.83244    0.71637    0.05470    1.000
    C114     C        0.79464    0.72022    0.10343    1.000
    H85      H        0.73490    0.72340    0.09540    1.000
    C115     C        0.84714    0.71917    0.16373    1.000
    H86      H        0.82350    0.72080    0.19710    1.000
    C116     C        0.93562    0.71571    0.17353    1.000
    N19      N        0.97391    0.71235    0.12794    1.000
    C117     C        0.25390    0.12977    0.20403    1.000
    C118     C        0.21800    0.02743    0.21702    1.000
    C119     C        0.12962    0.01337    0.20462    1.000
    H87      H        0.09240    0.06860    0.19000    1.000
    C120     C        0.09686    0.91860    0.21384    1.000
    H88      H        0.03760    0.90830    0.20530    1.000
    C121     C        0.15431    0.83863    0.23611    1.000
    C122     C        0.26963    0.94230    0.23809    1.000
    H89      H        0.32900    0.95030    0.24580    1.000
    C123     C        0.72662    0.42820    0.87241    1.000
    C124     C        0.75334    0.31843    0.89140    1.000
    C125     C        0.83929    0.28990    0.90960    1.000
    H90      H        0.88200    0.33930    0.91170    1.000
    C126     C        0.86152    0.18810    0.92456    1.000
    H91      H        0.91900    0.16720    0.93520    1.000
    C127     C        0.79687    0.11785    0.92339    1.000
    N20      N        0.71299    0.14275    0.90647    1.000
    C128     C        0.72739    0.94549    0.22464    1.000
    C129     C        0.76389    0.97035    0.17134    1.000
    C130     C        0.71411    0.99040    0.11169    1.000
    H92      H        0.65450    0.99700    0.10320    1.000
    C131     C        0.75350    0.00050    0.06455    1.000
    H93      H        0.72120    0.01410    0.02390    1.000
    C132     C        0.84150    0.98996    0.07946    1.000
    N21      N        0.89219    0.97762    0.13711    1.000
    C133     C        0.99016    0.72410    0.90289    1.000
    H94      H        0.96220    0.78210    0.91260    1.000
    C134     C        0.07841    0.72660    0.91596    1.000
    H95      H        0.10850    0.78560    0.93390    1.000
    C135     C        0.12263    0.64230    0.90268    1.000
    C136     C        0.07308    0.55940    0.87463    1.000
    H96      H        0.09950    0.50130    0.86350    1.000
    C137     C        0.98481    0.56180    0.86294    1.000
    H97      H        0.95320    0.50420    0.84440    1.000
    C138     C        0.22005    0.64050    0.92005    1.000
    H98      H        0.23870    0.63880    0.88250    1.000
    H99      H        0.24250    0.70350    0.94250    1.000
    C139     C        0.25658    0.54720    0.95997    1.000
    H100     H        0.22790    0.54120    0.99250    1.000
    H101     H        0.24300    0.48530    0.93450    1.000
    C140     C        0.35373    0.55080    0.99001    1.000
    H102     H        0.37080    0.49010    0.01630    1.000
    H103     H        0.36760    0.61180    0.01630    1.000
    C141     C        0.40451    0.55370    0.94289    1.000
    C142     C        0.43552    0.64510    0.92618    1.000
    H104     H        0.42690    0.70690    0.94500    1.000
    C143     C        0.47961    0.64540    0.88134    1.000
    H105     H        0.49970    0.70840    0.87070    1.000
    C144     C        0.46523    0.47130    0.86975    1.000
    H106     H        0.47560    0.41020    0.85090    1.000
    C145     C        0.42034    0.46490    0.91360    1.000
    H107     H        0.40080    0.40100    0.92340    1.000
    N22      N        0.94244    0.64282    0.87702    1.000
    N23      N        0.49465    0.55985    0.85279    1.000
    C146     C        0.92115    0.71210    0.07006    1.000
    H108     H        0.94640    0.70870    0.03760    1.000
    N24      N        0.23996    0.84845    0.24821    1.000
    C147     C        0.69293    0.24190    0.88980    1.000
    H109     H        0.63480    0.25990    0.87640    1.000
    C148     C        0.85234    0.96744    0.18151    1.000
    H110     H        0.88650    0.95770    0.22210    1.000
    S13      S        0.00087    0.72014    0.25221    1.000
    S14      S        0.12468    0.70952    0.24895    1.000
    S15      S        0.81891    0.98343    0.94070    1.000
    S16      S        0.90559    0.98907    0.02614    1.000
    O28      O        0.70009    0.70859    0.97379    1.000
    O29      O        0.82376    0.71656    0.94863    1.000
    O30      O        0.77978    0.49810    0.89438    1.000
    O31      O        0.65214    0.44010    0.83610    1.000
    O32      O        0.20144    0.20284    0.18840    1.000
    O33      O        0.33326    0.13623    0.20911    1.000
    O34      O        0.78116    0.93100    0.27523    1.000
    O35      O        0.64759    0.93920    0.21501    1.000
    O36      O        0.65753    0.68545    0.84887    1.000
    H111     H        0.65220    0.68890    0.88550    1.000
    H112     H        0.65200    0.74550    0.83250    1.000
