# CIF file generated by openbabel 3.1.0, see https://openbabel.org
data_I
_chemical_name_common 'XINHOT_clean'
_cell_length_a 12.3896
_cell_length_b 12.4401
_cell_length_c 16.5787
_cell_angle_alpha 83.9804
_cell_angle_beta 77.8429
_cell_angle_gamma 60.1343
_space_group_name_H-M_alt 'P 1'
_space_group_name_Hall 'P 1'
loop_
    _symmetry_equiv_pos_as_xyz
    x,y,z
loop_
    _atom_site_label
    _atom_site_type_symbol
    _atom_site_fract_x
    _atom_site_fract_y
    _atom_site_fract_z
    _atom_site_occupancy
    La1      La       0.48528    0.09346    0.59992    1.000
    La2      La       0.42126    0.09346    0.90008    1.000
    La3      La       0.51472    0.90654    0.40008    1.000
    La4      La       0.57874    0.90654    0.09992    1.000
    H1       H        0.78580    0.66420    0.45450    1.000
    H2       H        0.07090    0.24380    0.64530    1.000
    H3       H        0.89430    0.25220    0.58830    1.000
    H4       H        0.88290    0.07480    0.11270    1.000
    H5       H        0.74780    0.07800    0.25090    1.000
    H6       H        0.91810    0.73700    0.62950    1.000
    H7       H        0.91340    0.45920    0.38290    1.000
    H8       H        0.04920    0.23380    0.88980    1.000
    H9       H        0.86260    0.07420    0.45770    1.000
    H10      H        0.80890    0.58540    0.77040    1.000
    H11      H        0.69100    0.59740    0.83640    1.000
    H12      H        0.70350    0.78860    0.82620    1.000
    H13      H        0.55000    0.66420    0.04550    1.000
    H14      H        0.68530    0.24380    0.85470    1.000
    H15      H        0.85350    0.25220    0.91170    1.000
    H16      H        0.04230    0.07480    0.38730    1.000
    H17      H        0.17420    0.07800    0.24910    1.000
    H18      H        0.34490    0.73700    0.87050    1.000
    H19      H        0.62740    0.45920    0.11710    1.000
    H20      H        0.71700    0.23380    0.61020    1.000
    H21      H        0.06320    0.07420    0.04230    1.000
    H22      H        0.60570    0.58540    0.72960    1.000
    H23      H        0.71160    0.59740    0.66360    1.000
    H24      H        0.50790    0.78860    0.67380    1.000
    H25      H        0.21420    0.33580    0.54550    1.000
    H26      H        0.92910    0.75620    0.35470    1.000
    H27      H        0.10570    0.74780    0.41170    1.000
    H28      H        0.11710    0.92520    0.88730    1.000
    H29      H        0.25220    0.92200    0.74910    1.000
    H30      H        0.08190    0.26300    0.37050    1.000
    H31      H        0.08660    0.54080    0.61710    1.000
    H32      H        0.95080    0.76620    0.11020    1.000
    H33      H        0.13740    0.92580    0.54230    1.000
    H34      H        0.19110    0.41460    0.22960    1.000
    H35      H        0.30900    0.40260    0.16360    1.000
    H36      H        0.29650    0.21140    0.17380    1.000
    H37      H        0.45000    0.33580    0.95450    1.000
    H38      H        0.31470    0.75620    0.14530    1.000
    H39      H        0.14650    0.74780    0.08830    1.000
    H40      H        0.95770    0.92520    0.61270    1.000
    H41      H        0.82580    0.92200    0.75090    1.000
    H42      H        0.65510    0.26300    0.12950    1.000
    H43      H        0.37260    0.54080    0.88290    1.000
    H44      H        0.28300    0.76620    0.38980    1.000
    H45      H        0.93680    0.92580    0.95770    1.000
    H46      H        0.39430    0.41460    0.27040    1.000
    H47      H        0.28840    0.40260    0.33640    1.000
    H48      H        0.49210    0.21140    0.32620    1.000
    C1       C        0.71860    0.84340    0.55560    1.000
    C2       C        0.83330    0.71840    0.54230    1.000
    C3       C        0.95320    0.51840    0.47560    1.000
    C4       C        0.08020    0.23440    0.76510    1.000
    C5       C        0.21440    0.21180    0.75140    1.000
    C6       C        0.84750    0.63900    0.48670    1.000
    C7       C        0.02780    0.24260    0.69830    1.000
    C8       C        0.85520    0.24720    0.64190    1.000
    C9       C        0.93990    0.07540    0.14100    1.000
    C10      C        0.67220    0.07560    0.41030    1.000
    C11      C        0.78790    0.07620    0.36020    1.000
    C12      C        0.80750    0.07720    0.27720    1.000
    C13      C        0.91750    0.07680    0.22840    1.000
    C14      C        0.90750    0.24920    0.70970    1.000
    C15      C        0.92610    0.68220    0.59170    1.000
    C16      C        0.97230    0.43440    0.41710    1.000
    C17      C        0.01330    0.23800    0.84490    1.000
    C18      C        0.87720    0.07520    0.40030    1.000
    C19      C        0.71740    0.63200    0.78600    1.000
    C20      C        0.43800    0.84340    0.94440    1.000
    C21      C        0.44830    0.71840    0.95770    1.000
    C22      C        0.52840    0.51840    0.02440    1.000
    C23      C        0.68540    0.23440    0.73490    1.000
    C24      C        0.57380    0.21180    0.74860    1.000
    C25      C        0.51350    0.63900    0.01330    1.000
    C26      C        0.72960    0.24260    0.80170    1.000
    C27      C        0.89760    0.24720    0.85810    1.000
    C28      C        0.98470    0.07540    0.35900    1.000
    C29      C        0.25220    0.07560    0.08970    1.000
    C30      C        0.13590    0.07620    0.13980    1.000
    C31      C        0.11530    0.07720    0.22280    1.000
    C32      C        0.00570    0.07680    0.27160    1.000
    C33      C        0.84330    0.24920    0.79030    1.000
    C34      C        0.39170    0.68220    0.90830    1.000
    C35      C        0.59330    0.43440    0.08290    1.000
    C36      C        0.74870    0.23800    0.65510    1.000
    C37      C        0.04760    0.07520    0.09970    1.000
    C38      C        0.65060    0.63200    0.71400    1.000
    C39      C        0.28140    0.15660    0.44440    1.000
    C40      C        0.16670    0.28160    0.45770    1.000
    C41      C        0.04680    0.48160    0.52440    1.000
    C42      C        0.91980    0.76560    0.23490    1.000
    C43      C        0.78560    0.78820    0.24860    1.000
    C44      C        0.15250    0.36100    0.51330    1.000
    C45      C        0.97220    0.75740    0.30170    1.000
    C46      C        0.14480    0.75280    0.35810    1.000
    C47      C        0.06010    0.92460    0.85900    1.000
    C48      C        0.32780    0.92440    0.58970    1.000
    C49      C        0.21210    0.92380    0.63980    1.000
    C50      C        0.19250    0.92280    0.72280    1.000
    C51      C        0.08250    0.92320    0.77160    1.000
    C52      C        0.09250    0.75080    0.29030    1.000
    C53      C        0.07390    0.31780    0.40830    1.000
    C54      C        0.02770    0.56560    0.58290    1.000
    C55      C        0.98670    0.76200    0.15510    1.000
    C56      C        0.12280    0.92480    0.59970    1.000
    C57      C        0.28260    0.36800    0.21400    1.000
    C58      C        0.56200    0.15660    0.05560    1.000
    C59      C        0.55170    0.28160    0.04230    1.000
    C60      C        0.47160    0.48160    0.97560    1.000
    C61      C        0.31460    0.76560    0.26510    1.000
    C62      C        0.42620    0.78820    0.25140    1.000
    C63      C        0.48650    0.36100    0.98670    1.000
    C64      C        0.27040    0.75740    0.19830    1.000
    C65      C        0.10240    0.75280    0.14190    1.000
    C66      C        0.01530    0.92460    0.64100    1.000
    C67      C        0.74780    0.92440    0.91030    1.000
    C68      C        0.86410    0.92380    0.86020    1.000
    C69      C        0.88470    0.92280    0.77720    1.000
    C70      C        0.99430    0.92320    0.72840    1.000
    C71      C        0.15670    0.75080    0.20970    1.000
    C72      C        0.60830    0.31780    0.09170    1.000
    C73      C        0.40670    0.56560    0.91710    1.000
    C74      C        0.25130    0.76200    0.34490    1.000
    C75      C        0.95240    0.92480    0.90030    1.000
    C76      C        0.34940    0.36800    0.28600    1.000
    C77      C        0.57950    0.84100    0.75000    1.000
    C78      C        0.42050    0.15900    0.25000    1.000
    N1       N        0.67410    0.76180    0.79540    1.000
    N2       N        0.56410    0.76180    0.70460    1.000
    N3       N        0.32590    0.23820    0.20460    1.000
    N4       N        0.43590    0.23820    0.29540    1.000
    O1       O        0.63404    0.87612    0.51300    1.000
    O2       O        0.70720    0.91320    0.60990    1.000
    O3       O        0.26850    0.21880    0.68130    1.000
    O4       O        0.26150    0.19020    0.81450    1.000
    O5       O        0.64140    0.10760    0.48360    1.000
    O6       O        0.61140    0.04520    0.37410    1.000
    O7       O        0.48984    0.87612    0.98700    1.000
    O8       O        0.37960    0.91320    0.89010    1.000
    O9       O        0.51270    0.21880    0.81870    1.000
    O10      O        0.54830    0.19020    0.68550    1.000
    O11      O        0.25100    0.10760    0.01640    1.000
    O12      O        0.34340    0.04520    0.12590    1.000
    O13      O        0.36596    0.12388    0.48700    1.000
    O14      O        0.29280    0.08680    0.39010    1.000
    O15      O        0.73150    0.78120    0.31870    1.000
    O16      O        0.73850    0.80980    0.18550    1.000
    O17      O        0.35860    0.89240    0.51640    1.000
    O18      O        0.38860    0.95480    0.62590    1.000
    O19      O        0.51016    0.12388    0.01300    1.000
    O20      O        0.62040    0.08680    0.10990    1.000
    O21      O        0.48730    0.78120    0.18130    1.000
    O22      O        0.45170    0.80980    0.31450    1.000
    O23      O        0.74900    0.89240    0.98360    1.000
    O24      O        0.65660    0.95480    0.87410    1.000
    O25      O        0.51400    0.97200    0.75000    1.000
    O26      O        0.48600    0.02800    0.25000    1.000
