# CIF file generated by openbabel 3.1.0, see https://openbabel.org
data_I
_chemical_name_common 'image0'
_cell_length_a 38.7269
_cell_length_b 14.9496
_cell_length_c 31.7789
_cell_angle_alpha 90
_cell_angle_beta 90.794
_cell_angle_gamma 90
_space_group_name_H-M_alt 'P 1'
_space_group_name_Hall 'P 1'
loop_
    _symmetry_equiv_pos_as_xyz
    x,y,z
loop_
    _atom_site_label
    _atom_site_type_symbol
    _atom_site_fract_x
    _atom_site_fract_y
    _atom_site_fract_z
    _atom_site_occupancy
    In1      In       0.21832    0.02187    0.20056    1.000
    O1       O        0.24523    0.90010    0.23335    1.000
    O2       O        0.26119    0.03730    0.24795    1.000
    O3       O        0.67473    0.48040    0.24478    1.000
    O4       O        0.68970    0.62110    0.24035    1.000
    O5       O        0.69116    0.59260    0.66272    1.000
    O6       O        0.67526    0.45220    0.65423    1.000
    O7       O        0.25875    0.99750    0.65282    1.000
    O8       O        0.24504    0.85960    0.66771    1.000
    C1       C        0.26454    0.95630    0.25266    1.000
    C2       C        0.29306    0.91950    0.28032    1.000
    C3       C        0.29704    0.83060    0.28700    1.000
    H1       H        0.28130    0.79070    0.27520    1.000
    C4       C        0.32476    0.79790    0.31166    1.000
    H2       H        0.32740    0.73670    0.31590    1.000
    C5       C        0.34831    0.85830    0.32972    1.000
    C6       C        0.34337    0.94800    0.32410    1.000
    H3       H        0.35860    0.98810    0.33690    1.000
    C7       C        0.31619    0.98060    0.29960    1.000
    H4       H        0.31320    0.04190    0.29600    1.000
    C8       C        0.37830    0.82500    0.35601    1.000
    C9       C        0.39337    0.74540    0.34565    1.000
    H5       H        0.38460    0.71280    0.32300    1.000
    C10      C        0.42142    0.71220    0.36824    1.000
    H6       H        0.43180    0.65870    0.36040    1.000
    C11      C        0.43447    0.76190    0.40443    1.000
    C12      C        0.41791    0.84340    0.41236    1.000
    H7       H        0.42600    0.87830    0.43460    1.000
    C13      C        0.39041    0.87420    0.38900    1.000
    H8       H        0.38010    0.92840    0.39570    1.000
    C14      C        0.46437    0.72850    0.42939    1.000
    C15      C        0.49468    0.70090    0.40391    1.000
    C16      C        0.50735    0.75870    0.37350    1.000
    H9       H        0.49660    0.81370    0.36910    1.000
    C17      C        0.53599    0.73550    0.34940    1.000
    H10      H        0.54420    0.77550    0.32960    1.000
    C18      C        0.55197    0.65510    0.35475    1.000
    C19      C        0.53724    0.59350    0.38200    1.000
    H11      H        0.54610    0.53580    0.38400    1.000
    C20      C        0.50909    0.61830    0.40630    1.000
    H12      H        0.49990    0.57680    0.42480    1.000
    C21      C        0.58259    0.63080    0.32907    1.000
    C22      C        0.60470    0.69740    0.31410    1.000
    H13      H        0.60070    0.75700    0.32080    1.000
    C23      C        0.63255    0.67450    0.28910    1.000
    H14      H        0.64630    0.71930    0.27790    1.000
    C24      C        0.63999    0.58600    0.28075    1.000
    C25      C        0.61750    0.51970    0.29560    1.000
    H15      H        0.62130    0.45990    0.28910    1.000
    C26      C        0.58982    0.54360    0.31980    1.000
    H16      H        0.57560    0.49900    0.33020    1.000
    C27      C        0.46442    0.72500    0.47147    1.000
    C28      C        0.43403    0.74800    0.49677    1.000
    C29      C        0.40240    0.70110    0.49271    1.000
    H17      H        0.40070    0.65330    0.47410    1.000
    C30      C        0.37442    0.72510    0.51580    1.000
    H18      H        0.35380    0.69350    0.51280    1.000
    C31      C        0.37655    0.79830    0.54458    1.000
    C32      C        0.40723    0.84260    0.54760    1.000
    H19      H        0.40890    0.89260    0.56490    1.000
    C33      C        0.43571    0.81560    0.52580    1.000
    H20      H        0.45670    0.84390    0.53080    1.000
    C34      C        0.34628    0.82770    0.57033    1.000
    C35      C        0.32426    0.76540    0.58759    1.000
    H21      H        0.32780    0.70490    0.58260    1.000
    C36      C        0.29651    0.79270    0.61273    1.000
    H22      H        0.28190    0.75030    0.62430    1.000
    C37      C        0.29101    0.88220    0.62012    1.000
    C38      C        0.31345    0.94490    0.60150    1.000
    H23      H        0.30990    0.00570    0.60580    1.000
    C39      C        0.34048    0.91730    0.57690    1.000
    H24      H        0.35490    0.95950    0.56470    1.000
    C40      C        0.49567    0.69830    0.49682    1.000
    C41      C        0.49334    0.63410    0.52770    1.000
    H25      H        0.47200    0.60830    0.53310    1.000
    C42      C        0.52167    0.60700    0.55080    1.000
    H26      H        0.51930    0.56110    0.57030    1.000
    C43      C        0.55384    0.64670    0.54555    1.000
    C44      C        0.55574    0.71440    0.51460    1.000
    H27      H        0.57670    0.74300    0.51020    1.000
    C45      C        0.52731    0.73910    0.49070    1.000
    H28      H        0.52940    0.78350    0.47040    1.000
    C46      C        0.58470    0.61680    0.57077    1.000
    C47      C        0.59003    0.52780    0.58025    1.000
    H29      H        0.57420    0.48560    0.57050    1.000
    C48      C        0.61837    0.49930    0.60391    1.000
    H30      H        0.62160    0.43900    0.61010    1.000
    C49      C        0.64207    0.56370    0.61831    1.000
    C50      C        0.63718    0.65220    0.60798    1.000
    H31      H        0.65330    0.69440    0.61700    1.000
    C51      C        0.60904    0.67940    0.58465    1.000
    H32      H        0.60620    0.73950    0.57810    1.000
    C52      C        0.67016    0.56250    0.25395    1.000
    C53      C        0.67144    0.53420    0.64618    1.000
    C54      C        0.26339    0.91490    0.64824    1.000
    In2      In       0.71832    0.52187    0.20056    1.000
    O9       O        0.74523    0.40010    0.23335    1.000
    O10      O        0.76119    0.53730    0.24795    1.000
    O11      O        0.17473    0.98040    0.24478    1.000
    O12      O        0.18970    0.12110    0.24035    1.000
    O13      O        0.19116    0.09260    0.66272    1.000
    O14      O        0.17526    0.95220    0.65423    1.000
    O15      O        0.75875    0.49750    0.65282    1.000
    O16      O        0.74504    0.35960    0.66771    1.000
    C55      C        0.76454    0.45630    0.25266    1.000
    C56      C        0.79306    0.41950    0.28032    1.000
    C57      C        0.79704    0.33060    0.28700    1.000
    H33      H        0.78130    0.29070    0.27520    1.000
    C58      C        0.82476    0.29790    0.31166    1.000
    H34      H        0.82740    0.23670    0.31590    1.000
    C59      C        0.84831    0.35830    0.32972    1.000
    C60      C        0.84337    0.44800    0.32410    1.000
    H35      H        0.85860    0.48810    0.33690    1.000
    C61      C        0.81619    0.48060    0.29960    1.000
    H36      H        0.81320    0.54190    0.29600    1.000
    C62      C        0.87830    0.32500    0.35601    1.000
    C63      C        0.89337    0.24540    0.34565    1.000
    H37      H        0.88460    0.21280    0.32300    1.000
    C64      C        0.92142    0.21220    0.36824    1.000
    H38      H        0.93180    0.15870    0.36040    1.000
    C65      C        0.93447    0.26190    0.40443    1.000
    C66      C        0.91791    0.34340    0.41236    1.000
    H39      H        0.92600    0.37830    0.43460    1.000
    C67      C        0.89041    0.37420    0.38900    1.000
    H40      H        0.88010    0.42840    0.39570    1.000
    C68      C        0.96437    0.22850    0.42939    1.000
    C69      C        0.99468    0.20090    0.40391    1.000
    C70      C        0.00735    0.25870    0.37350    1.000
    H41      H        0.99660    0.31370    0.36910    1.000
    C71      C        0.03599    0.23550    0.34940    1.000
    H42      H        0.04420    0.27550    0.32960    1.000
    C72      C        0.05197    0.15510    0.35475    1.000
    C73      C        0.03724    0.09350    0.38200    1.000
    H43      H        0.04610    0.03580    0.38400    1.000
    C74      C        0.00909    0.11830    0.40630    1.000
    H44      H        0.99990    0.07680    0.42480    1.000
    C75      C        0.08259    0.13080    0.32907    1.000
    C76      C        0.10470    0.19740    0.31410    1.000
    H45      H        0.10070    0.25700    0.32080    1.000
    C77      C        0.13255    0.17450    0.28910    1.000
    H46      H        0.14630    0.21930    0.27790    1.000
    C78      C        0.13999    0.08600    0.28075    1.000
    C79      C        0.11750    0.01970    0.29560    1.000
    H47      H        0.12130    0.95990    0.28910    1.000
    C80      C        0.08982    0.04360    0.31980    1.000
    H48      H        0.07560    0.99900    0.33020    1.000
    C81      C        0.96442    0.22500    0.47147    1.000
    C82      C        0.93403    0.24800    0.49677    1.000
    C83      C        0.90240    0.20110    0.49271    1.000
    H49      H        0.90070    0.15330    0.47410    1.000
    C84      C        0.87442    0.22510    0.51580    1.000
    H50      H        0.85380    0.19350    0.51280    1.000
    C85      C        0.87655    0.29830    0.54458    1.000
    C86      C        0.90723    0.34260    0.54760    1.000
    H51      H        0.90890    0.39260    0.56490    1.000
    C87      C        0.93571    0.31560    0.52580    1.000
    H52      H        0.95670    0.34390    0.53080    1.000
    C88      C        0.84628    0.32770    0.57033    1.000
    C89      C        0.82426    0.26540    0.58759    1.000
    H53      H        0.82780    0.20490    0.58260    1.000
    C90      C        0.79651    0.29270    0.61273    1.000
    H54      H        0.78190    0.25030    0.62430    1.000
    C91      C        0.79101    0.38220    0.62012    1.000
    C92      C        0.81345    0.44490    0.60150    1.000
    H55      H        0.80990    0.50570    0.60580    1.000
    C93      C        0.84048    0.41730    0.57690    1.000
    H56      H        0.85490    0.45950    0.56470    1.000
    C94      C        0.99567    0.19830    0.49682    1.000
    C95      C        0.99334    0.13410    0.52770    1.000
    H57      H        0.97200    0.10830    0.53310    1.000
    C96      C        0.02167    0.10700    0.55080    1.000
    H58      H        0.01930    0.06110    0.57030    1.000
    C97      C        0.05384    0.14670    0.54555    1.000
    C98      C        0.05574    0.21440    0.51460    1.000
    H59      H        0.07670    0.24300    0.51020    1.000
    C99      C        0.02731    0.23910    0.49070    1.000
    H60      H        0.02940    0.28350    0.47040    1.000
    C100     C        0.08470    0.11680    0.57077    1.000
    C101     C        0.09003    0.02780    0.58025    1.000
    H61      H        0.07420    0.98560    0.57050    1.000
    C102     C        0.11837    0.99930    0.60391    1.000
    H62      H        0.12160    0.93900    0.61010    1.000
    C103     C        0.14207    0.06370    0.61831    1.000
    C104     C        0.13718    0.15220    0.60798    1.000
    H63      H        0.15330    0.19440    0.61700    1.000
    C105     C        0.10904    0.17940    0.58465    1.000
    H64      H        0.10620    0.23950    0.57810    1.000
    C106     C        0.17016    0.06250    0.25395    1.000
    C107     C        0.17144    0.03420    0.64618    1.000
    C108     C        0.76339    0.41490    0.64824    1.000
    In3      In       0.21832    0.97813    0.70056    1.000
    O17      O        0.24523    0.09990    0.73335    1.000
    O18      O        0.26119    0.96270    0.74795    1.000
    O19      O        0.67473    0.51960    0.74478    1.000
    O20      O        0.68970    0.37890    0.74035    1.000
    O21      O        0.69116    0.40740    0.16272    1.000
    O22      O        0.67526    0.54780    0.15423    1.000
    O23      O        0.25875    0.00250    0.15282    1.000
    O24      O        0.24504    0.14040    0.16771    1.000
    C109     C        0.26454    0.04370    0.75266    1.000
    C110     C        0.29306    0.08050    0.78032    1.000
    C111     C        0.29704    0.16940    0.78700    1.000
    H65      H        0.28130    0.20930    0.77520    1.000
    C112     C        0.32476    0.20210    0.81166    1.000
    H66      H        0.32740    0.26330    0.81590    1.000
    C113     C        0.34831    0.14170    0.82972    1.000
    C114     C        0.34337    0.05200    0.82410    1.000
    H67      H        0.35860    0.01190    0.83690    1.000
    C115     C        0.31619    0.01940    0.79960    1.000
    H68      H        0.31320    0.95810    0.79600    1.000
    C116     C        0.37830    0.17500    0.85601    1.000
    C117     C        0.39337    0.25460    0.84565    1.000
    H69      H        0.38460    0.28720    0.82300    1.000
    C118     C        0.42142    0.28780    0.86824    1.000
    H70      H        0.43180    0.34130    0.86040    1.000
    C119     C        0.43447    0.23810    0.90443    1.000
    C120     C        0.41791    0.15660    0.91236    1.000
    H71      H        0.42600    0.12170    0.93460    1.000
    C121     C        0.39041    0.12580    0.88900    1.000
    H72      H        0.38010    0.07160    0.89570    1.000
    C122     C        0.46437    0.27150    0.92939    1.000
    C123     C        0.49468    0.29910    0.90391    1.000
    C124     C        0.50735    0.24130    0.87350    1.000
    H73      H        0.49660    0.18630    0.86910    1.000
    C125     C        0.53599    0.26450    0.84940    1.000
    H74      H        0.54420    0.22450    0.82960    1.000
    C126     C        0.55197    0.34490    0.85475    1.000
    C127     C        0.53724    0.40650    0.88200    1.000
    H75      H        0.54610    0.46420    0.88400    1.000
    C128     C        0.50909    0.38170    0.90630    1.000
    H76      H        0.49990    0.42320    0.92480    1.000
    C129     C        0.58259    0.36920    0.82907    1.000
    C130     C        0.60470    0.30260    0.81410    1.000
    H77      H        0.60070    0.24300    0.82080    1.000
    C131     C        0.63255    0.32550    0.78910    1.000
    H78      H        0.64630    0.28070    0.77790    1.000
    C132     C        0.63999    0.41400    0.78075    1.000
    C133     C        0.61750    0.48030    0.79560    1.000
    H79      H        0.62130    0.54010    0.78910    1.000
    C134     C        0.58982    0.45640    0.81980    1.000
    H80      H        0.57560    0.50100    0.83020    1.000
    C135     C        0.46442    0.27500    0.97147    1.000
    C136     C        0.43403    0.25200    0.99677    1.000
    C137     C        0.40240    0.29890    0.99271    1.000
    H81      H        0.40070    0.34670    0.97410    1.000
    C138     C        0.37442    0.27490    0.01580    1.000
    H82      H        0.35380    0.30650    0.01280    1.000
    C139     C        0.37655    0.20170    0.04458    1.000
    C140     C        0.40723    0.15740    0.04760    1.000
    H83      H        0.40890    0.10740    0.06490    1.000
    C141     C        0.43571    0.18440    0.02580    1.000
    H84      H        0.45670    0.15610    0.03080    1.000
    C142     C        0.34628    0.17230    0.07033    1.000
    C143     C        0.32426    0.23460    0.08759    1.000
    H85      H        0.32780    0.29510    0.08260    1.000
    C144     C        0.29651    0.20730    0.11273    1.000
    H86      H        0.28190    0.24970    0.12430    1.000
    C145     C        0.29101    0.11780    0.12012    1.000
    C146     C        0.31345    0.05510    0.10150    1.000
    H87      H        0.30990    0.99430    0.10580    1.000
    C147     C        0.34048    0.08270    0.07690    1.000
    H88      H        0.35490    0.04050    0.06470    1.000
    C148     C        0.49567    0.30170    0.99682    1.000
    C149     C        0.49334    0.36590    0.02770    1.000
    H89      H        0.47200    0.39170    0.03310    1.000
    C150     C        0.52167    0.39300    0.05080    1.000
    H90      H        0.51930    0.43890    0.07030    1.000
    C151     C        0.55384    0.35330    0.04555    1.000
    C152     C        0.55574    0.28560    0.01460    1.000
    H91      H        0.57670    0.25700    0.01020    1.000
    C153     C        0.52731    0.26090    0.99070    1.000
    H92      H        0.52940    0.21650    0.97040    1.000
    C154     C        0.58470    0.38320    0.07077    1.000
    C155     C        0.59003    0.47220    0.08025    1.000
    H93      H        0.57420    0.51440    0.07050    1.000
    C156     C        0.61837    0.50070    0.10391    1.000
    H94      H        0.62160    0.56100    0.11010    1.000
    C157     C        0.64207    0.43630    0.11831    1.000
    C158     C        0.63718    0.34780    0.10798    1.000
    H95      H        0.65330    0.30560    0.11700    1.000
    C159     C        0.60904    0.32060    0.08465    1.000
    H96      H        0.60620    0.26050    0.07810    1.000
    C160     C        0.67016    0.43750    0.75395    1.000
    C161     C        0.67144    0.46580    0.14618    1.000
    C162     C        0.26339    0.08510    0.14824    1.000
    In4      In       0.71832    0.47813    0.70056    1.000
    O25      O        0.74523    0.59990    0.73335    1.000
    O26      O        0.76119    0.46270    0.74795    1.000
    O27      O        0.17473    0.01960    0.74478    1.000
    O28      O        0.18970    0.87890    0.74035    1.000
    O29      O        0.19116    0.90740    0.16272    1.000
    O30      O        0.17526    0.04780    0.15423    1.000
    O31      O        0.75875    0.50250    0.15282    1.000
    O32      O        0.74504    0.64040    0.16771    1.000
    C163     C        0.76454    0.54370    0.75266    1.000
    C164     C        0.79306    0.58050    0.78032    1.000
    C165     C        0.79704    0.66940    0.78700    1.000
    H97      H        0.78130    0.70930    0.77520    1.000
    C166     C        0.82476    0.70210    0.81166    1.000
    H98      H        0.82740    0.76330    0.81590    1.000
    C167     C        0.84831    0.64170    0.82972    1.000
    C168     C        0.84337    0.55200    0.82410    1.000
    H99      H        0.85860    0.51190    0.83690    1.000
    C169     C        0.81619    0.51940    0.79960    1.000
    H100     H        0.81320    0.45810    0.79600    1.000
    C170     C        0.87830    0.67500    0.85601    1.000
    C171     C        0.89337    0.75460    0.84565    1.000
    H101     H        0.88460    0.78720    0.82300    1.000
    C172     C        0.92142    0.78780    0.86824    1.000
    H102     H        0.93180    0.84130    0.86040    1.000
    C173     C        0.93447    0.73810    0.90443    1.000
    C174     C        0.91791    0.65660    0.91236    1.000
    H103     H        0.92600    0.62170    0.93460    1.000
    C175     C        0.89041    0.62580    0.88900    1.000
    H104     H        0.88010    0.57160    0.89570    1.000
    C176     C        0.96437    0.77150    0.92939    1.000
    C177     C        0.99468    0.79910    0.90391    1.000
    C178     C        0.00735    0.74130    0.87350    1.000
    H105     H        0.99660    0.68630    0.86910    1.000
    C179     C        0.03599    0.76450    0.84940    1.000
    H106     H        0.04420    0.72450    0.82960    1.000
    C180     C        0.05197    0.84490    0.85475    1.000
    C181     C        0.03724    0.90650    0.88200    1.000
    H107     H        0.04610    0.96420    0.88400    1.000
    C182     C        0.00909    0.88170    0.90630    1.000
    H108     H        0.99990    0.92320    0.92480    1.000
    C183     C        0.08259    0.86920    0.82907    1.000
    C184     C        0.10470    0.80260    0.81410    1.000
    H109     H        0.10070    0.74300    0.82080    1.000
    C185     C        0.13255    0.82550    0.78910    1.000
    H110     H        0.14630    0.78070    0.77790    1.000
    C186     C        0.13999    0.91400    0.78075    1.000
    C187     C        0.11750    0.98030    0.79560    1.000
    H111     H        0.12130    0.04010    0.78910    1.000
    C188     C        0.08982    0.95640    0.81980    1.000
    H112     H        0.07560    0.00100    0.83020    1.000
    C189     C        0.96442    0.77500    0.97147    1.000
    C190     C        0.93403    0.75200    0.99677    1.000
    C191     C        0.90240    0.79890    0.99271    1.000
    H113     H        0.90070    0.84670    0.97410    1.000
    C192     C        0.87442    0.77490    0.01580    1.000
    H114     H        0.85380    0.80650    0.01280    1.000
    C193     C        0.87655    0.70170    0.04458    1.000
    C194     C        0.90723    0.65740    0.04760    1.000
    H115     H        0.90890    0.60740    0.06490    1.000
    C195     C        0.93571    0.68440    0.02580    1.000
    H116     H        0.95670    0.65610    0.03080    1.000
    C196     C        0.84628    0.67230    0.07033    1.000
    C197     C        0.82426    0.73460    0.08759    1.000
    H117     H        0.82780    0.79510    0.08260    1.000
    C198     C        0.79651    0.70730    0.11273    1.000
    H118     H        0.78190    0.74970    0.12430    1.000
    C199     C        0.79101    0.61780    0.12012    1.000
    C200     C        0.81345    0.55510    0.10150    1.000
    H119     H        0.80990    0.49430    0.10580    1.000
    C201     C        0.84048    0.58270    0.07690    1.000
    H120     H        0.85490    0.54050    0.06470    1.000
    C202     C        0.99567    0.80170    0.99682    1.000
    C203     C        0.99334    0.86590    0.02770    1.000
    H121     H        0.97200    0.89170    0.03310    1.000
    C204     C        0.02167    0.89300    0.05080    1.000
    H122     H        0.01930    0.93890    0.07030    1.000
    C205     C        0.05384    0.85330    0.04555    1.000
    C206     C        0.05574    0.78560    0.01460    1.000
    H123     H        0.07670    0.75700    0.01020    1.000
    C207     C        0.02731    0.76090    0.99070    1.000
    H124     H        0.02940    0.71650    0.97040    1.000
    C208     C        0.08470    0.88320    0.07077    1.000
    C209     C        0.09003    0.97220    0.08025    1.000
    H125     H        0.07420    0.01440    0.07050    1.000
    C210     C        0.11837    0.00070    0.10391    1.000
    H126     H        0.12160    0.06100    0.11010    1.000
    C211     C        0.14207    0.93630    0.11831    1.000
    C212     C        0.13718    0.84780    0.10798    1.000
    H127     H        0.15330    0.80560    0.11700    1.000
    C213     C        0.10904    0.82060    0.08465    1.000
    H128     H        0.10620    0.76050    0.07810    1.000
    C214     C        0.17016    0.93750    0.75395    1.000
    C215     C        0.17144    0.96580    0.14618    1.000
    C216     C        0.76339    0.58510    0.14824    1.000
    In5      In       0.78168    0.02187    0.29944    1.000
    O33      O        0.75477    0.90010    0.26665    1.000
    O34      O        0.73881    0.03730    0.25205    1.000
    O35      O        0.32527    0.48040    0.25522    1.000
    O36      O        0.31030    0.62110    0.25965    1.000
    O37      O        0.30884    0.59260    0.83728    1.000
    O38      O        0.32474    0.45220    0.84577    1.000
    O39      O        0.74125    0.99750    0.84718    1.000
    O40      O        0.75496    0.85960    0.83229    1.000
    C217     C        0.73546    0.95630    0.24734    1.000
    C218     C        0.70694    0.91950    0.21968    1.000
    C219     C        0.70296    0.83060    0.21300    1.000
    H129     H        0.71870    0.79070    0.22480    1.000
    C220     C        0.67524    0.79790    0.18834    1.000
    H130     H        0.67260    0.73670    0.18410    1.000
    C221     C        0.65169    0.85830    0.17028    1.000
    C222     C        0.65663    0.94800    0.17590    1.000
    H131     H        0.64140    0.98810    0.16310    1.000
    C223     C        0.68381    0.98060    0.20040    1.000
    H132     H        0.68680    0.04190    0.20400    1.000
    C224     C        0.62170    0.82500    0.14399    1.000
    C225     C        0.60663    0.74540    0.15435    1.000
    H133     H        0.61540    0.71280    0.17700    1.000
    C226     C        0.57858    0.71220    0.13176    1.000
    H134     H        0.56820    0.65870    0.13960    1.000
    C227     C        0.56553    0.76190    0.09557    1.000
    C228     C        0.58209    0.84340    0.08764    1.000
    H135     H        0.57400    0.87830    0.06540    1.000
    C229     C        0.60959    0.87420    0.11100    1.000
    H136     H        0.61990    0.92840    0.10430    1.000
    C230     C        0.53563    0.72850    0.07061    1.000
    C231     C        0.50532    0.70090    0.09609    1.000
    C232     C        0.49265    0.75870    0.12650    1.000
    H137     H        0.50340    0.81370    0.13090    1.000
    C233     C        0.46401    0.73550    0.15060    1.000
    H138     H        0.45580    0.77550    0.17040    1.000
    C234     C        0.44803    0.65510    0.14525    1.000
    C235     C        0.46276    0.59350    0.11800    1.000
    H139     H        0.45390    0.53580    0.11600    1.000
    C236     C        0.49091    0.61830    0.09370    1.000
    H140     H        0.50010    0.57680    0.07520    1.000
    C237     C        0.41741    0.63080    0.17093    1.000
    C238     C        0.39530    0.69740    0.18590    1.000
    H141     H        0.39930    0.75700    0.17920    1.000
    C239     C        0.36745    0.67450    0.21090    1.000
    H142     H        0.35370    0.71930    0.22210    1.000
    C240     C        0.36001    0.58600    0.21925    1.000
    C241     C        0.38250    0.51970    0.20440    1.000
    H143     H        0.37870    0.45990    0.21090    1.000
    C242     C        0.41018    0.54360    0.18020    1.000
    H144     H        0.42440    0.49900    0.16980    1.000
    C243     C        0.53558    0.72500    0.02853    1.000
    C244     C        0.56597    0.74800    0.00323    1.000
    C245     C        0.59760    0.70110    0.00729    1.000
    H145     H        0.59930    0.65330    0.02590    1.000
    C246     C        0.62558    0.72510    0.98420    1.000
    H146     H        0.64620    0.69350    0.98720    1.000
    C247     C        0.62345    0.79830    0.95542    1.000
    C248     C        0.59277    0.84260    0.95240    1.000
    H147     H        0.59110    0.89260    0.93510    1.000
    C249     C        0.56429    0.81560    0.97420    1.000
    H148     H        0.54330    0.84390    0.96920    1.000
    C250     C        0.65372    0.82770    0.92967    1.000
    C251     C        0.67574    0.76540    0.91241    1.000
    H149     H        0.67220    0.70490    0.91740    1.000
    C252     C        0.70349    0.79270    0.88727    1.000
    H150     H        0.71810    0.75030    0.87570    1.000
    C253     C        0.70899    0.88220    0.87988    1.000
    C254     C        0.68655    0.94490    0.89850    1.000
    H151     H        0.69010    0.00570    0.89420    1.000
    C255     C        0.65952    0.91730    0.92310    1.000
    H152     H        0.64510    0.95950    0.93530    1.000
    C256     C        0.50433    0.69830    0.00318    1.000
    C257     C        0.50666    0.63410    0.97230    1.000
    H153     H        0.52800    0.60830    0.96690    1.000
    C258     C        0.47833    0.60700    0.94920    1.000
    H154     H        0.48070    0.56110    0.92970    1.000
    C259     C        0.44616    0.64670    0.95445    1.000
    C260     C        0.44426    0.71440    0.98540    1.000
    H155     H        0.42330    0.74300    0.98980    1.000
    C261     C        0.47269    0.73910    0.00930    1.000
    H156     H        0.47060    0.78350    0.02960    1.000
    C262     C        0.41530    0.61680    0.92923    1.000
    C263     C        0.40997    0.52780    0.91975    1.000
    H157     H        0.42580    0.48560    0.92950    1.000
    C264     C        0.38163    0.49930    0.89609    1.000
    H158     H        0.37840    0.43900    0.88990    1.000
    C265     C        0.35793    0.56370    0.88169    1.000
    C266     C        0.36282    0.65220    0.89202    1.000
    H159     H        0.34670    0.69440    0.88300    1.000
    C267     C        0.39096    0.67940    0.91535    1.000
    H160     H        0.39380    0.73950    0.92190    1.000
    C268     C        0.32984    0.56250    0.24605    1.000
    C269     C        0.32856    0.53420    0.85382    1.000
    C270     C        0.73661    0.91490    0.85176    1.000
    In6      In       0.28168    0.52187    0.29944    1.000
    O41      O        0.25477    0.40010    0.26665    1.000
    O42      O        0.23881    0.53730    0.25205    1.000
    O43      O        0.82527    0.98040    0.25522    1.000
    O44      O        0.81030    0.12110    0.25965    1.000
    O45      O        0.80884    0.09260    0.83728    1.000
    O46      O        0.82474    0.95220    0.84577    1.000
    O47      O        0.24125    0.49750    0.84718    1.000
    O48      O        0.25496    0.35960    0.83229    1.000
    C271     C        0.23546    0.45630    0.24734    1.000
    C272     C        0.20694    0.41950    0.21968    1.000
    C273     C        0.20296    0.33060    0.21300    1.000
    H161     H        0.21870    0.29070    0.22480    1.000
    C274     C        0.17524    0.29790    0.18834    1.000
    H162     H        0.17260    0.23670    0.18410    1.000
    C275     C        0.15169    0.35830    0.17028    1.000
    C276     C        0.15663    0.44800    0.17590    1.000
    H163     H        0.14140    0.48810    0.16310    1.000
    C277     C        0.18381    0.48060    0.20040    1.000
    H164     H        0.18680    0.54190    0.20400    1.000
    C278     C        0.12170    0.32500    0.14399    1.000
    C279     C        0.10663    0.24540    0.15435    1.000
    H165     H        0.11540    0.21280    0.17700    1.000
    C280     C        0.07858    0.21220    0.13176    1.000
    H166     H        0.06820    0.15870    0.13960    1.000
    C281     C        0.06553    0.26190    0.09557    1.000
    C282     C        0.08209    0.34340    0.08764    1.000
    H167     H        0.07400    0.37830    0.06540    1.000
    C283     C        0.10959    0.37420    0.11100    1.000
    H168     H        0.11990    0.42840    0.10430    1.000
    C284     C        0.03563    0.22850    0.07061    1.000
    C285     C        0.00532    0.20090    0.09609    1.000
    C286     C        0.99265    0.25870    0.12650    1.000
    H169     H        0.00340    0.31370    0.13090    1.000
    C287     C        0.96401    0.23550    0.15060    1.000
    H170     H        0.95580    0.27550    0.17040    1.000
    C288     C        0.94803    0.15510    0.14525    1.000
    C289     C        0.96276    0.09350    0.11800    1.000
    H171     H        0.95390    0.03580    0.11600    1.000
    C290     C        0.99091    0.11830    0.09370    1.000
    H172     H        0.00010    0.07680    0.07520    1.000
    C291     C        0.91741    0.13080    0.17093    1.000
    C292     C        0.89530    0.19740    0.18590    1.000
    H173     H        0.89930    0.25700    0.17920    1.000
    C293     C        0.86745    0.17450    0.21090    1.000
    H174     H        0.85370    0.21930    0.22210    1.000
    C294     C        0.86001    0.08600    0.21925    1.000
    C295     C        0.88250    0.01970    0.20440    1.000
    H175     H        0.87870    0.95990    0.21090    1.000
    C296     C        0.91018    0.04360    0.18020    1.000
    H176     H        0.92440    0.99900    0.16980    1.000
    C297     C        0.03558    0.22500    0.02853    1.000
    C298     C        0.06597    0.24800    0.00323    1.000
    C299     C        0.09760    0.20110    0.00729    1.000
    H177     H        0.09930    0.15330    0.02590    1.000
    C300     C        0.12558    0.22510    0.98420    1.000
    H178     H        0.14620    0.19350    0.98720    1.000
    C301     C        0.12345    0.29830    0.95542    1.000
    C302     C        0.09277    0.34260    0.95240    1.000
    H179     H        0.09110    0.39260    0.93510    1.000
    C303     C        0.06429    0.31560    0.97420    1.000
    H180     H        0.04330    0.34390    0.96920    1.000
    C304     C        0.15372    0.32770    0.92967    1.000
    C305     C        0.17574    0.26540    0.91241    1.000
    H181     H        0.17220    0.20490    0.91740    1.000
    C306     C        0.20349    0.29270    0.88727    1.000
    H182     H        0.21810    0.25030    0.87570    1.000
    C307     C        0.20899    0.38220    0.87988    1.000
    C308     C        0.18655    0.44490    0.89850    1.000
    H183     H        0.19010    0.50570    0.89420    1.000
    C309     C        0.15952    0.41730    0.92310    1.000
    H184     H        0.14510    0.45950    0.93530    1.000
    C310     C        0.00433    0.19830    0.00318    1.000
    C311     C        0.00666    0.13410    0.97230    1.000
    H185     H        0.02800    0.10830    0.96690    1.000
    C312     C        0.97833    0.10700    0.94920    1.000
    H186     H        0.98070    0.06110    0.92970    1.000
    C313     C        0.94616    0.14670    0.95445    1.000
    C314     C        0.94426    0.21440    0.98540    1.000
    H187     H        0.92330    0.24300    0.98980    1.000
    C315     C        0.97269    0.23910    0.00930    1.000
    H188     H        0.97060    0.28350    0.02960    1.000
    C316     C        0.91530    0.11680    0.92923    1.000
    C317     C        0.90997    0.02780    0.91975    1.000
    H189     H        0.92580    0.98560    0.92950    1.000
    C318     C        0.88163    0.99930    0.89609    1.000
    H190     H        0.87840    0.93900    0.88990    1.000
    C319     C        0.85793    0.06370    0.88169    1.000
    C320     C        0.86282    0.15220    0.89202    1.000
    H191     H        0.84670    0.19440    0.88300    1.000
    C321     C        0.89096    0.17940    0.91535    1.000
    H192     H        0.89380    0.23950    0.92190    1.000
    C322     C        0.82984    0.06250    0.24605    1.000
    C323     C        0.82856    0.03420    0.85382    1.000
    C324     C        0.23661    0.41490    0.85176    1.000
    In7      In       0.78168    0.97813    0.79944    1.000
    O49      O        0.75477    0.09990    0.76665    1.000
    O50      O        0.73881    0.96270    0.75205    1.000
    O51      O        0.32527    0.51960    0.75522    1.000
    O52      O        0.31030    0.37890    0.75965    1.000
    O53      O        0.30884    0.40740    0.33728    1.000
    O54      O        0.32474    0.54780    0.34577    1.000
    O55      O        0.74125    0.00250    0.34718    1.000
    O56      O        0.75496    0.14040    0.33229    1.000
    C325     C        0.73546    0.04370    0.74734    1.000
    C326     C        0.70694    0.08050    0.71968    1.000
    C327     C        0.70296    0.16940    0.71300    1.000
    H193     H        0.71870    0.20930    0.72480    1.000
    C328     C        0.67524    0.20210    0.68834    1.000
    H194     H        0.67260    0.26330    0.68410    1.000
    C329     C        0.65169    0.14170    0.67028    1.000
    C330     C        0.65663    0.05200    0.67590    1.000
    H195     H        0.64140    0.01190    0.66310    1.000
    C331     C        0.68381    0.01940    0.70040    1.000
    H196     H        0.68680    0.95810    0.70400    1.000
    C332     C        0.62170    0.17500    0.64399    1.000
    C333     C        0.60663    0.25460    0.65435    1.000
    H197     H        0.61540    0.28720    0.67700    1.000
    C334     C        0.57858    0.28780    0.63176    1.000
    H198     H        0.56820    0.34130    0.63960    1.000
    C335     C        0.56553    0.23810    0.59557    1.000
    C336     C        0.58209    0.15660    0.58764    1.000
    H199     H        0.57400    0.12170    0.56540    1.000
    C337     C        0.60959    0.12580    0.61100    1.000
    H200     H        0.61990    0.07160    0.60430    1.000
    C338     C        0.53563    0.27150    0.57061    1.000
    C339     C        0.50532    0.29910    0.59609    1.000
    C340     C        0.49265    0.24130    0.62650    1.000
    H201     H        0.50340    0.18630    0.63090    1.000
    C341     C        0.46401    0.26450    0.65060    1.000
    H202     H        0.45580    0.22450    0.67040    1.000
    C342     C        0.44803    0.34490    0.64525    1.000
    C343     C        0.46276    0.40650    0.61800    1.000
    H203     H        0.45390    0.46420    0.61600    1.000
    C344     C        0.49091    0.38170    0.59370    1.000
    H204     H        0.50010    0.42320    0.57520    1.000
    C345     C        0.41741    0.36920    0.67093    1.000
    C346     C        0.39530    0.30260    0.68590    1.000
    H205     H        0.39930    0.24300    0.67920    1.000
    C347     C        0.36745    0.32550    0.71090    1.000
    H206     H        0.35370    0.28070    0.72210    1.000
    C348     C        0.36001    0.41400    0.71925    1.000
    C349     C        0.38250    0.48030    0.70440    1.000
    H207     H        0.37870    0.54010    0.71090    1.000
    C350     C        0.41018    0.45640    0.68020    1.000
    H208     H        0.42440    0.50100    0.66980    1.000
    C351     C        0.53558    0.27500    0.52853    1.000
    C352     C        0.56597    0.25200    0.50323    1.000
    C353     C        0.59760    0.29890    0.50729    1.000
    H209     H        0.59930    0.34670    0.52590    1.000
    C354     C        0.62558    0.27490    0.48420    1.000
    H210     H        0.64620    0.30650    0.48720    1.000
    C355     C        0.62345    0.20170    0.45542    1.000
    C356     C        0.59277    0.15740    0.45240    1.000
    H211     H        0.59110    0.10740    0.43510    1.000
    C357     C        0.56429    0.18440    0.47420    1.000
    H212     H        0.54330    0.15610    0.46920    1.000
    C358     C        0.65372    0.17230    0.42967    1.000
    C359     C        0.67574    0.23460    0.41241    1.000
    H213     H        0.67220    0.29510    0.41740    1.000
    C360     C        0.70349    0.20730    0.38727    1.000
    H214     H        0.71810    0.24970    0.37570    1.000
    C361     C        0.70899    0.11780    0.37988    1.000
    C362     C        0.68655    0.05510    0.39850    1.000
    H215     H        0.69010    0.99430    0.39420    1.000
    C363     C        0.65952    0.08270    0.42310    1.000
    H216     H        0.64510    0.04050    0.43530    1.000
    C364     C        0.50433    0.30170    0.50318    1.000
    C365     C        0.50666    0.36590    0.47230    1.000
    H217     H        0.52800    0.39170    0.46690    1.000
    C366     C        0.47833    0.39300    0.44920    1.000
    H218     H        0.48070    0.43890    0.42970    1.000
    C367     C        0.44616    0.35330    0.45445    1.000
    C368     C        0.44426    0.28560    0.48540    1.000
    H219     H        0.42330    0.25700    0.48980    1.000
    C369     C        0.47269    0.26090    0.50930    1.000
    H220     H        0.47060    0.21650    0.52960    1.000
    C370     C        0.41530    0.38320    0.42923    1.000
    C371     C        0.40997    0.47220    0.41975    1.000
    H221     H        0.42580    0.51440    0.42950    1.000
    C372     C        0.38163    0.50070    0.39609    1.000
    H222     H        0.37840    0.56100    0.38990    1.000
    C373     C        0.35793    0.43630    0.38169    1.000
    C374     C        0.36282    0.34780    0.39202    1.000
    H223     H        0.34670    0.30560    0.38300    1.000
    C375     C        0.39096    0.32060    0.41535    1.000
    H224     H        0.39380    0.26050    0.42190    1.000
    C376     C        0.32984    0.43750    0.74605    1.000
    C377     C        0.32856    0.46580    0.35382    1.000
    C378     C        0.73661    0.08510    0.35176    1.000
    In8      In       0.28168    0.47813    0.79944    1.000
    O57      O        0.25477    0.59990    0.76665    1.000
    O58      O        0.23881    0.46270    0.75205    1.000
    O59      O        0.82527    0.01960    0.75522    1.000
    O60      O        0.81030    0.87890    0.75965    1.000
    O61      O        0.80884    0.90740    0.33728    1.000
    O62      O        0.82474    0.04780    0.34577    1.000
    O63      O        0.24125    0.50250    0.34718    1.000
    O64      O        0.25496    0.64040    0.33229    1.000
    C379     C        0.23546    0.54370    0.74734    1.000
    C380     C        0.20694    0.58050    0.71968    1.000
    C381     C        0.20296    0.66940    0.71300    1.000
    H225     H        0.21870    0.70930    0.72480    1.000
    C382     C        0.17524    0.70210    0.68834    1.000
    H226     H        0.17260    0.76330    0.68410    1.000
    C383     C        0.15169    0.64170    0.67028    1.000
    C384     C        0.15663    0.55200    0.67590    1.000
    H227     H        0.14140    0.51190    0.66310    1.000
    C385     C        0.18381    0.51940    0.70040    1.000
    H228     H        0.18680    0.45810    0.70400    1.000
    C386     C        0.12170    0.67500    0.64399    1.000
    C387     C        0.10663    0.75460    0.65435    1.000
    H229     H        0.11540    0.78720    0.67700    1.000
    C388     C        0.07858    0.78780    0.63176    1.000
    H230     H        0.06820    0.84130    0.63960    1.000
    C389     C        0.06553    0.73810    0.59557    1.000
    C390     C        0.08209    0.65660    0.58764    1.000
    H231     H        0.07400    0.62170    0.56540    1.000
    C391     C        0.10959    0.62580    0.61100    1.000
    H232     H        0.11990    0.57160    0.60430    1.000
    C392     C        0.03563    0.77150    0.57061    1.000
    C393     C        0.00532    0.79910    0.59609    1.000
    C394     C        0.99265    0.74130    0.62650    1.000
    H233     H        0.00340    0.68630    0.63090    1.000
    C395     C        0.96401    0.76450    0.65060    1.000
    H234     H        0.95580    0.72450    0.67040    1.000
    C396     C        0.94803    0.84490    0.64525    1.000
    C397     C        0.96276    0.90650    0.61800    1.000
    H235     H        0.95390    0.96420    0.61600    1.000
    C398     C        0.99091    0.88170    0.59370    1.000
    H236     H        0.00010    0.92320    0.57520    1.000
    C399     C        0.91741    0.86920    0.67093    1.000
    C400     C        0.89530    0.80260    0.68590    1.000
    H237     H        0.89930    0.74300    0.67920    1.000
    C401     C        0.86745    0.82550    0.71090    1.000
    H238     H        0.85370    0.78070    0.72210    1.000
    C402     C        0.86001    0.91400    0.71925    1.000
    C403     C        0.88250    0.98030    0.70440    1.000
    H239     H        0.87870    0.04010    0.71090    1.000
    C404     C        0.91018    0.95640    0.68020    1.000
    H240     H        0.92440    0.00100    0.66980    1.000
    C405     C        0.03558    0.77500    0.52853    1.000
    C406     C        0.06597    0.75200    0.50323    1.000
    C407     C        0.09760    0.79890    0.50729    1.000
    H241     H        0.09930    0.84670    0.52590    1.000
    C408     C        0.12558    0.77490    0.48420    1.000
    H242     H        0.14620    0.80650    0.48720    1.000
    C409     C        0.12345    0.70170    0.45542    1.000
    C410     C        0.09277    0.65740    0.45240    1.000
    H243     H        0.09110    0.60740    0.43510    1.000
    C411     C        0.06429    0.68440    0.47420    1.000
    H244     H        0.04330    0.65610    0.46920    1.000
    C412     C        0.15372    0.67230    0.42967    1.000
    C413     C        0.17574    0.73460    0.41241    1.000
    H245     H        0.17220    0.79510    0.41740    1.000
    C414     C        0.20349    0.70730    0.38727    1.000
    H246     H        0.21810    0.74970    0.37570    1.000
    C415     C        0.20899    0.61780    0.37988    1.000
    C416     C        0.18655    0.55510    0.39850    1.000
    H247     H        0.19010    0.49430    0.39420    1.000
    C417     C        0.15952    0.58270    0.42310    1.000
    H248     H        0.14510    0.54050    0.43530    1.000
    C418     C        0.00433    0.80170    0.50318    1.000
    C419     C        0.00666    0.86590    0.47230    1.000
    H249     H        0.02800    0.89170    0.46690    1.000
    C420     C        0.97833    0.89300    0.44920    1.000
    H250     H        0.98070    0.93890    0.42970    1.000
    C421     C        0.94616    0.85330    0.45445    1.000
    C422     C        0.94426    0.78560    0.48540    1.000
    H251     H        0.92330    0.75700    0.48980    1.000
    C423     C        0.97269    0.76090    0.50930    1.000
    H252     H        0.97060    0.71650    0.52960    1.000
    C424     C        0.91530    0.88320    0.42923    1.000
    C425     C        0.90997    0.97220    0.41975    1.000
    H253     H        0.92580    0.01440    0.42950    1.000
    C426     C        0.88163    0.00070    0.39609    1.000
    H254     H        0.87840    0.06100    0.38990    1.000
    C427     C        0.85793    0.93630    0.38169    1.000
    C428     C        0.86282    0.84780    0.39202    1.000
    H255     H        0.84670    0.80560    0.38300    1.000
    C429     C        0.89096    0.82060    0.41535    1.000
    H256     H        0.89380    0.76050    0.42190    1.000
    C430     C        0.82984    0.93750    0.74605    1.000
    C431     C        0.82856    0.96580    0.35382    1.000
    C432     C        0.23661    0.58510    0.35176    1.000
