# CIF file generated by openbabel 3.1.0, see https://openbabel.org
data_I
_chemical_name_common 'image0'
_cell_length_a 18.7471
_cell_length_b 18.7471
_cell_length_c 34.8339
_cell_angle_alpha 90
_cell_angle_beta 90
_cell_angle_gamma 90
_space_group_name_H-M_alt 'P 1'
_space_group_name_Hall 'P 1'
loop_
    _symmetry_equiv_pos_as_xyz
    x,y,z
loop_
    _atom_site_label
    _atom_site_type_symbol
    _atom_site_fract_x
    _atom_site_fract_y
    _atom_site_fract_z
    _atom_site_occupancy
    C1       C        0.02300    0.43130    0.03400    1.000
    C2       C        0.05080    0.36370    0.03400    1.000
    H1       H        0.01360    0.45430    0.05720    1.000
    C3       C        0.05620    0.31510    0.07000    1.000
    O1       O        0.11100    0.27900    0.07580    1.000
    N1       N        0.00900    0.33100    0.09680    1.000
    H2       H        0.98200    0.36700    0.09220    1.000
    C4       C        0.01390    0.30380    0.14020    1.000
    C5       C        0.94850    0.29880    0.16080    1.000
    C6       C        0.94890    0.27870    0.20030    1.000
    C7       C        0.01470    0.26370    0.21910    1.000
    C8       C        0.08010    0.26870    0.19840    1.000
    C9       C        0.07970    0.28880    0.15900    1.000
    H3       H        0.90560    0.30860    0.14860    1.000
    H4       H        0.01490    0.25050    0.24480    1.000
    H5       H        0.12240    0.29220    0.14550    1.000
    C10      C        0.88510    0.27370    0.22040    1.000
    O2       O        0.82810    0.29500    0.20580    1.000
    O3       O        0.88360    0.24770    0.25340    1.000
    C11      C        0.14430    0.25410    0.21680    1.000
    O4       O        0.20230    0.26930    0.20120    1.000
    O5       O        0.14500    0.22550    0.24920    1.000
    Cu1      Cu       0.79480    0.24190    0.27400    1.000
    C12      C        0.97700    0.56870    0.03400    1.000
    C13      C        0.94920    0.63630    0.03400    1.000
    H6       H        0.98640    0.54570    0.05720    1.000
    C14      C        0.94380    0.68490    0.07000    1.000
    O6       O        0.88900    0.72100    0.07580    1.000
    N2       N        0.99100    0.66900    0.09680    1.000
    H7       H        0.01800    0.63300    0.09220    1.000
    C15      C        0.98610    0.69620    0.14020    1.000
    C16      C        0.05150    0.70120    0.16080    1.000
    C17      C        0.05110    0.72130    0.20030    1.000
    C18      C        0.98530    0.73630    0.21910    1.000
    C19      C        0.91990    0.73130    0.19840    1.000
    C20      C        0.92030    0.71120    0.15900    1.000
    H8       H        0.09440    0.69140    0.14860    1.000
    H9       H        0.98510    0.74950    0.24480    1.000
    H10      H        0.87760    0.70780    0.14550    1.000
    C21      C        0.11490    0.72630    0.22040    1.000
    O7       O        0.17190    0.70500    0.20580    1.000
    O8       O        0.11640    0.75230    0.25340    1.000
    C22      C        0.85570    0.74590    0.21680    1.000
    O9       O        0.79770    0.73070    0.20120    1.000
    O10      O        0.85500    0.77450    0.24920    1.000
    Cu2      Cu       0.20520    0.75810    0.27400    1.000
    C23      C        0.56870    0.02300    0.03400    1.000
    C24      C        0.63630    0.05080    0.03400    1.000
    H11      H        0.54570    0.01360    0.05720    1.000
    C25      C        0.68490    0.05620    0.07000    1.000
    O11      O        0.72100    0.11100    0.07580    1.000
    N3       N        0.66900    0.00900    0.09680    1.000
    H12      H        0.63300    0.98200    0.09220    1.000
    C26      C        0.69620    0.01390    0.14020    1.000
    C27      C        0.70120    0.94850    0.16080    1.000
    C28      C        0.72130    0.94890    0.20030    1.000
    C29      C        0.73630    0.01470    0.21910    1.000
    C30      C        0.73130    0.08010    0.19840    1.000
    C31      C        0.71120    0.07970    0.15900    1.000
    H13      H        0.69140    0.90560    0.14860    1.000
    H14      H        0.74950    0.01490    0.24480    1.000
    H15      H        0.70780    0.12240    0.14550    1.000
    C32      C        0.72630    0.88510    0.22040    1.000
    O12      O        0.70500    0.82810    0.20580    1.000
    O13      O        0.75230    0.88360    0.25340    1.000
    C33      C        0.74590    0.14430    0.21680    1.000
    O14      O        0.73070    0.20230    0.20120    1.000
    O15      O        0.77450    0.14500    0.24920    1.000
    Cu3      Cu       0.75810    0.79480    0.27400    1.000
    C34      C        0.43130    0.97700    0.03400    1.000
    C35      C        0.36370    0.94920    0.03400    1.000
    H16      H        0.45430    0.98640    0.05720    1.000
    C36      C        0.31510    0.94380    0.07000    1.000
    O16      O        0.27900    0.88900    0.07580    1.000
    N4       N        0.33100    0.99100    0.09680    1.000
    H17      H        0.36700    0.01800    0.09220    1.000
    C37      C        0.30380    0.98610    0.14020    1.000
    C38      C        0.29880    0.05150    0.16080    1.000
    C39      C        0.27870    0.05110    0.20030    1.000
    C40      C        0.26370    0.98530    0.21910    1.000
    C41      C        0.26870    0.91990    0.19840    1.000
    C42      C        0.28880    0.92030    0.15900    1.000
    H18      H        0.30860    0.09440    0.14860    1.000
    H19      H        0.25050    0.98510    0.24480    1.000
    H20      H        0.29220    0.87760    0.14550    1.000
    C43      C        0.27370    0.11490    0.22040    1.000
    O17      O        0.29500    0.17190    0.20580    1.000
    O18      O        0.24770    0.11640    0.25340    1.000
    C44      C        0.25410    0.85570    0.21680    1.000
    O19      O        0.26930    0.79770    0.20120    1.000
    O20      O        0.22550    0.85500    0.24920    1.000
    Cu4      Cu       0.24190    0.20520    0.27400    1.000
    C45      C        0.47700    0.93130    0.46600    1.000
    C46      C        0.44920    0.86370    0.46600    1.000
    H21      H        0.48640    0.95430    0.44280    1.000
    C47      C        0.44380    0.81510    0.43000    1.000
    O21      O        0.38900    0.77900    0.42420    1.000
    N5       N        0.49100    0.83100    0.40320    1.000
    H22      H        0.51800    0.86700    0.40780    1.000
    C48      C        0.48610    0.80380    0.35980    1.000
    C49      C        0.55150    0.79880    0.33920    1.000
    C50      C        0.55110    0.77870    0.29970    1.000
    C51      C        0.48530    0.76370    0.28090    1.000
    C52      C        0.41990    0.76870    0.30160    1.000
    C53      C        0.42030    0.78880    0.34100    1.000
    H23      H        0.59440    0.80860    0.35140    1.000
    H24      H        0.48510    0.75050    0.25520    1.000
    H25      H        0.37760    0.79220    0.35450    1.000
    C54      C        0.61490    0.77370    0.27960    1.000
    O22      O        0.67190    0.79500    0.29420    1.000
    O23      O        0.61640    0.74770    0.24660    1.000
    C55      C        0.35570    0.75410    0.28320    1.000
    O24      O        0.29770    0.76930    0.29880    1.000
    O25      O        0.35500    0.72550    0.25080    1.000
    Cu5      Cu       0.70520    0.74190    0.22600    1.000
    C56      C        0.52300    0.06870    0.46600    1.000
    C57      C        0.55080    0.13630    0.46600    1.000
    H26      H        0.51360    0.04570    0.44280    1.000
    C58      C        0.55620    0.18490    0.43000    1.000
    O26      O        0.61100    0.22100    0.42420    1.000
    N6       N        0.50900    0.16900    0.40320    1.000
    H27      H        0.48200    0.13300    0.40780    1.000
    C59      C        0.51390    0.19620    0.35980    1.000
    C60      C        0.44850    0.20120    0.33920    1.000
    C61      C        0.44890    0.22130    0.29970    1.000
    C62      C        0.51470    0.23630    0.28090    1.000
    C63      C        0.58010    0.23130    0.30160    1.000
    C64      C        0.57970    0.21120    0.34100    1.000
    H28      H        0.40560    0.19140    0.35140    1.000
    H29      H        0.51490    0.24950    0.25520    1.000
    H30      H        0.62240    0.20780    0.35450    1.000
    C65      C        0.38510    0.22630    0.27960    1.000
    O27      O        0.32810    0.20500    0.29420    1.000
    O28      O        0.38360    0.25230    0.24660    1.000
    C66      C        0.64430    0.24590    0.28320    1.000
    O29      O        0.70230    0.23070    0.29880    1.000
    O30      O        0.64500    0.27450    0.25080    1.000
    Cu6      Cu       0.29480    0.25810    0.22600    1.000
    C67      C        0.93130    0.52300    0.46600    1.000
    C68      C        0.86370    0.55080    0.46600    1.000
    H31      H        0.95430    0.51360    0.44280    1.000
    C69      C        0.81510    0.55620    0.43000    1.000
    O31      O        0.77900    0.61100    0.42420    1.000
    N7       N        0.83100    0.50900    0.40320    1.000
    H32      H        0.86700    0.48200    0.40780    1.000
    C70      C        0.80380    0.51390    0.35980    1.000
    C71      C        0.79880    0.44850    0.33920    1.000
    C72      C        0.77870    0.44890    0.29970    1.000
    C73      C        0.76370    0.51470    0.28090    1.000
    C74      C        0.76870    0.58010    0.30160    1.000
    C75      C        0.78880    0.57970    0.34100    1.000
    H33      H        0.80860    0.40560    0.35140    1.000
    H34      H        0.75050    0.51490    0.25520    1.000
    H35      H        0.79220    0.62240    0.35450    1.000
    C76      C        0.77370    0.38510    0.27960    1.000
    O32      O        0.79500    0.32810    0.29420    1.000
    O33      O        0.74770    0.38360    0.24660    1.000
    C77      C        0.75410    0.64430    0.28320    1.000
    O34      O        0.76930    0.70230    0.29880    1.000
    O35      O        0.72550    0.64500    0.25080    1.000
    Cu7      Cu       0.74190    0.29480    0.22600    1.000
    C78      C        0.06870    0.47700    0.46600    1.000
    C79      C        0.13630    0.44920    0.46600    1.000
    H36      H        0.04570    0.48640    0.44280    1.000
    C80      C        0.18490    0.44380    0.43000    1.000
    O36      O        0.22100    0.38900    0.42420    1.000
    N8       N        0.16900    0.49100    0.40320    1.000
    H37      H        0.13300    0.51800    0.40780    1.000
    C81      C        0.19620    0.48610    0.35980    1.000
    C82      C        0.20120    0.55150    0.33920    1.000
    C83      C        0.22130    0.55110    0.29970    1.000
    C84      C        0.23630    0.48530    0.28090    1.000
    C85      C        0.23130    0.41990    0.30160    1.000
    C86      C        0.21120    0.42030    0.34100    1.000
    H38      H        0.19140    0.59440    0.35140    1.000
    H39      H        0.24950    0.48510    0.25520    1.000
    H40      H        0.20780    0.37760    0.35450    1.000
    C87      C        0.22630    0.61490    0.27960    1.000
    O37      O        0.20500    0.67190    0.29420    1.000
    O38      O        0.25230    0.61640    0.24660    1.000
    C88      C        0.24590    0.35570    0.28320    1.000
    O39      O        0.23070    0.29770    0.29880    1.000
    O40      O        0.27450    0.35500    0.25080    1.000
    Cu8      Cu       0.25810    0.70520    0.22600    1.000
    C89      C        0.97700    0.56870    0.96600    1.000
    C90      C        0.94920    0.63630    0.96600    1.000
    H41      H        0.98640    0.54570    0.94280    1.000
    C91      C        0.94380    0.68490    0.93000    1.000
    O41      O        0.88900    0.72100    0.92420    1.000
    N9       N        0.99100    0.66900    0.90320    1.000
    H42      H        0.01800    0.63300    0.90780    1.000
    C92      C        0.98610    0.69620    0.85980    1.000
    C93      C        0.05150    0.70120    0.83920    1.000
    C94      C        0.05110    0.72130    0.79970    1.000
    C95      C        0.98530    0.73630    0.78090    1.000
    C96      C        0.91990    0.73130    0.80160    1.000
    C97      C        0.92030    0.71120    0.84100    1.000
    H43      H        0.09440    0.69140    0.85140    1.000
    H44      H        0.98510    0.74950    0.75520    1.000
    H45      H        0.87760    0.70780    0.85450    1.000
    C98      C        0.11490    0.72630    0.77960    1.000
    O42      O        0.17190    0.70500    0.79420    1.000
    O43      O        0.11640    0.75230    0.74660    1.000
    C99      C        0.85570    0.74590    0.78320    1.000
    O44      O        0.79770    0.73070    0.79880    1.000
    O45      O        0.85500    0.77450    0.75080    1.000
    Cu9      Cu       0.20520    0.75810    0.72600    1.000
    C100     C        0.02300    0.43130    0.96600    1.000
    C101     C        0.05080    0.36370    0.96600    1.000
    H46      H        0.01360    0.45430    0.94280    1.000
    C102     C        0.05620    0.31510    0.93000    1.000
    O46      O        0.11100    0.27900    0.92420    1.000
    N10      N        0.00900    0.33100    0.90320    1.000
    H47      H        0.98200    0.36700    0.90780    1.000
    C103     C        0.01390    0.30380    0.85980    1.000
    C104     C        0.94850    0.29880    0.83920    1.000
    C105     C        0.94890    0.27870    0.79970    1.000
    C106     C        0.01470    0.26370    0.78090    1.000
    C107     C        0.08010    0.26870    0.80160    1.000
    C108     C        0.07970    0.28880    0.84100    1.000
    H48      H        0.90560    0.30860    0.85140    1.000
    H49      H        0.01490    0.25050    0.75520    1.000
    H50      H        0.12240    0.29220    0.85450    1.000
    C109     C        0.88510    0.27370    0.77960    1.000
    O47      O        0.82810    0.29500    0.79420    1.000
    O48      O        0.88360    0.24770    0.74660    1.000
    C110     C        0.14430    0.25410    0.78320    1.000
    O49      O        0.20230    0.26930    0.79880    1.000
    O50      O        0.14500    0.22550    0.75080    1.000
    Cu10     Cu       0.79480    0.24190    0.72600    1.000
    C111     C        0.43130    0.97700    0.96600    1.000
    C112     C        0.36370    0.94920    0.96600    1.000
    H51      H        0.45430    0.98640    0.94280    1.000
    C113     C        0.31510    0.94380    0.93000    1.000
    O51      O        0.27900    0.88900    0.92420    1.000
    N11      N        0.33100    0.99100    0.90320    1.000
    H52      H        0.36700    0.01800    0.90780    1.000
    C114     C        0.30380    0.98610    0.85980    1.000
    C115     C        0.29880    0.05150    0.83920    1.000
    C116     C        0.27870    0.05110    0.79970    1.000
    C117     C        0.26370    0.98530    0.78090    1.000
    C118     C        0.26870    0.91990    0.80160    1.000
    C119     C        0.28880    0.92030    0.84100    1.000
    H53      H        0.30860    0.09440    0.85140    1.000
    H54      H        0.25050    0.98510    0.75520    1.000
    H55      H        0.29220    0.87760    0.85450    1.000
    C120     C        0.27370    0.11490    0.77960    1.000
    O52      O        0.29500    0.17190    0.79420    1.000
    O53      O        0.24770    0.11640    0.74660    1.000
    C121     C        0.25410    0.85570    0.78320    1.000
    O54      O        0.26930    0.79770    0.79880    1.000
    O55      O        0.22550    0.85500    0.75080    1.000
    Cu11     Cu       0.24190    0.20520    0.72600    1.000
    C122     C        0.56870    0.02300    0.96600    1.000
    C123     C        0.63630    0.05080    0.96600    1.000
    H56      H        0.54570    0.01360    0.94280    1.000
    C124     C        0.68490    0.05620    0.93000    1.000
    O56      O        0.72100    0.11100    0.92420    1.000
    N12      N        0.66900    0.00900    0.90320    1.000
    H57      H        0.63300    0.98200    0.90780    1.000
    C125     C        0.69620    0.01390    0.85980    1.000
    C126     C        0.70120    0.94850    0.83920    1.000
    C127     C        0.72130    0.94890    0.79970    1.000
    C128     C        0.73630    0.01470    0.78090    1.000
    C129     C        0.73130    0.08010    0.80160    1.000
    C130     C        0.71120    0.07970    0.84100    1.000
    H58      H        0.69140    0.90560    0.85140    1.000
    H59      H        0.74950    0.01490    0.75520    1.000
    H60      H        0.70780    0.12240    0.85450    1.000
    C131     C        0.72630    0.88510    0.77960    1.000
    O57      O        0.70500    0.82810    0.79420    1.000
    O58      O        0.75230    0.88360    0.74660    1.000
    C132     C        0.74590    0.14430    0.78320    1.000
    O59      O        0.73070    0.20230    0.79880    1.000
    O60      O        0.77450    0.14500    0.75080    1.000
    Cu12     Cu       0.75810    0.79480    0.72600    1.000
    C133     C        0.52300    0.06870    0.53400    1.000
    C134     C        0.55080    0.13630    0.53400    1.000
    H61      H        0.51360    0.04570    0.55720    1.000
    C135     C        0.55620    0.18490    0.57000    1.000
    O61      O        0.61100    0.22100    0.57580    1.000
    N13      N        0.50900    0.16900    0.59680    1.000
    H62      H        0.48200    0.13300    0.59220    1.000
    C136     C        0.51390    0.19620    0.64020    1.000
    C137     C        0.44850    0.20120    0.66080    1.000
    C138     C        0.44890    0.22130    0.70030    1.000
    C139     C        0.51470    0.23630    0.71910    1.000
    C140     C        0.58010    0.23130    0.69840    1.000
    C141     C        0.57970    0.21120    0.65900    1.000
    H63      H        0.40560    0.19140    0.64860    1.000
    H64      H        0.51490    0.24950    0.74480    1.000
    H65      H        0.62240    0.20780    0.64550    1.000
    C142     C        0.38510    0.22630    0.72040    1.000
    O62      O        0.32810    0.20500    0.70580    1.000
    O63      O        0.38360    0.25230    0.75340    1.000
    C143     C        0.64430    0.24590    0.71680    1.000
    O64      O        0.70230    0.23070    0.70120    1.000
    O65      O        0.64500    0.27450    0.74920    1.000
    Cu13     Cu       0.29480    0.25810    0.77400    1.000
    C144     C        0.47700    0.93130    0.53400    1.000
    C145     C        0.44920    0.86370    0.53400    1.000
    H66      H        0.48640    0.95430    0.55720    1.000
    C146     C        0.44380    0.81510    0.57000    1.000
    O66      O        0.38900    0.77900    0.57580    1.000
    N14      N        0.49100    0.83100    0.59680    1.000
    H67      H        0.51800    0.86700    0.59220    1.000
    C147     C        0.48610    0.80380    0.64020    1.000
    C148     C        0.55150    0.79880    0.66080    1.000
    C149     C        0.55110    0.77870    0.70030    1.000
    C150     C        0.48530    0.76370    0.71910    1.000
    C151     C        0.41990    0.76870    0.69840    1.000
    C152     C        0.42030    0.78880    0.65900    1.000
    H68      H        0.59440    0.80860    0.64860    1.000
    H69      H        0.48510    0.75050    0.74480    1.000
    H70      H        0.37760    0.79220    0.64550    1.000
    C153     C        0.61490    0.77370    0.72040    1.000
    O67      O        0.67190    0.79500    0.70580    1.000
    O68      O        0.61640    0.74770    0.75340    1.000
    C154     C        0.35570    0.75410    0.71680    1.000
    O69      O        0.29770    0.76930    0.70120    1.000
    O70      O        0.35500    0.72550    0.74920    1.000
    Cu14     Cu       0.70520    0.74190    0.77400    1.000
    C155     C        0.06870    0.47700    0.53400    1.000
    C156     C        0.13630    0.44920    0.53400    1.000
    H71      H        0.04570    0.48640    0.55720    1.000
    C157     C        0.18490    0.44380    0.57000    1.000
    O71      O        0.22100    0.38900    0.57580    1.000
    N15      N        0.16900    0.49100    0.59680    1.000
    H72      H        0.13300    0.51800    0.59220    1.000
    C158     C        0.19620    0.48610    0.64020    1.000
    C159     C        0.20120    0.55150    0.66080    1.000
    C160     C        0.22130    0.55110    0.70030    1.000
    C161     C        0.23630    0.48530    0.71910    1.000
    C162     C        0.23130    0.41990    0.69840    1.000
    C163     C        0.21120    0.42030    0.65900    1.000
    H73      H        0.19140    0.59440    0.64860    1.000
    H74      H        0.24950    0.48510    0.74480    1.000
    H75      H        0.20780    0.37760    0.64550    1.000
    C164     C        0.22630    0.61490    0.72040    1.000
    O72      O        0.20500    0.67190    0.70580    1.000
    O73      O        0.25230    0.61640    0.75340    1.000
    C165     C        0.24590    0.35570    0.71680    1.000
    O74      O        0.23070    0.29770    0.70120    1.000
    O75      O        0.27450    0.35500    0.74920    1.000
    Cu15     Cu       0.25810    0.70520    0.77400    1.000
    C166     C        0.93130    0.52300    0.53400    1.000
    C167     C        0.86370    0.55080    0.53400    1.000
    H76      H        0.95430    0.51360    0.55720    1.000
    C168     C        0.81510    0.55620    0.57000    1.000
    O76      O        0.77900    0.61100    0.57580    1.000
    N16      N        0.83100    0.50900    0.59680    1.000
    H77      H        0.86700    0.48200    0.59220    1.000
    C169     C        0.80380    0.51390    0.64020    1.000
    C170     C        0.79880    0.44850    0.66080    1.000
    C171     C        0.77870    0.44890    0.70030    1.000
    C172     C        0.76370    0.51470    0.71910    1.000
    C173     C        0.76870    0.58010    0.69840    1.000
    C174     C        0.78880    0.57970    0.65900    1.000
    H78      H        0.80860    0.40560    0.64860    1.000
    H79      H        0.75050    0.51490    0.74480    1.000
    H80      H        0.79220    0.62240    0.64550    1.000
    C175     C        0.77370    0.38510    0.72040    1.000
    O77      O        0.79500    0.32810    0.70580    1.000
    O78      O        0.74770    0.38360    0.75340    1.000
    C176     C        0.75410    0.64430    0.71680    1.000
    O79      O        0.76930    0.70230    0.70120    1.000
    O80      O        0.72550    0.64500    0.74920    1.000
    Cu16     Cu       0.74190    0.29480    0.77400    1.000
    C177     C        0.00920    0.46510    0.00000    1.000
    C178     C        0.06460    0.33000    0.00000    1.000
    H81      H        0.08350    0.28410    0.00000    1.000
    C179     C        0.99080    0.53490    0.00000    1.000
    C180     C        0.93540    0.67000    0.00000    1.000
    H82      H        0.91650    0.71590    0.00000    1.000
    C181     C        0.53490    0.00920    0.00000    1.000
    C182     C        0.67000    0.06460    0.00000    1.000
    H83      H        0.71590    0.08350    0.00000    1.000
    C183     C        0.46510    0.99080    0.00000    1.000
    C184     C        0.33000    0.93540    0.00000    1.000
    H84      H        0.28410    0.91650    0.00000    1.000
    C185     C        0.49080    0.96510    0.50000    1.000
    C186     C        0.43540    0.83000    0.50000    1.000
    H85      H        0.41650    0.78410    0.50000    1.000
    C187     C        0.50920    0.03490    0.50000    1.000
    C188     C        0.56460    0.17000    0.50000    1.000
    H86      H        0.58350    0.21590    0.50000    1.000
    C189     C        0.96510    0.50920    0.50000    1.000
    C190     C        0.83000    0.56460    0.50000    1.000
    H87      H        0.78410    0.58350    0.50000    1.000
    C191     C        0.03490    0.49080    0.50000    1.000
    C192     C        0.17000    0.43540    0.50000    1.000
    H88      H        0.21590    0.41650    0.50000    1.000
