# CIF file generated by openbabel 3.1.0, see https://openbabel.org
data_I
_chemical_name_common 'image0'
_cell_length_a 7.6892
_cell_length_b 7.7385
_cell_length_c 13.0205
_cell_angle_alpha 90
_cell_angle_beta 90
_cell_angle_gamma 90
_space_group_name_H-M_alt 'P 1'
_space_group_name_Hall 'P 1'
loop_
    _symmetry_equiv_pos_as_xyz
    x,y,z
loop_
    _atom_site_label
    _atom_site_type_symbol
    _atom_site_fract_x
    _atom_site_fract_y
    _atom_site_fract_z
    _atom_site_occupancy
    Zn1      Zn       0.55141    0.49392    0.08401    1.000
    C1       C        0.42510    0.22610    0.23711    1.000
    H1       H        0.53290    0.17550    0.22510    1.000
    C2       C        0.29400    0.77090    0.02716    1.000
    H2       H        0.35730    0.77660    0.96640    1.000
    C3       C        0.31300    0.26850    0.96370    1.000
    H3       H        0.24610    0.27730    0.02300    1.000
    O1       O        0.39013    0.36258    0.19000    1.000
    O2       O        0.32545    0.15285    0.29924    1.000
    O3       O        0.34330    0.66620    0.09153    1.000
    O4       O        0.16726    0.87029    0.03528    1.000
    O5       O        0.45045    0.35080    0.96080    1.000
    O6       O        0.25623    0.17330    0.89259    1.000
    Zn2      Zn       0.94859    0.50608    0.58401    1.000
    C4       C        0.07490    0.77390    0.73711    1.000
    H4       H        0.96710    0.82450    0.72510    1.000
    C5       C        0.20600    0.22910    0.52716    1.000
    H5       H        0.14270    0.22340    0.46640    1.000
    C6       C        0.18700    0.73150    0.46370    1.000
    H6       H        0.25390    0.72270    0.52300    1.000
    O7       O        0.10987    0.63742    0.69000    1.000
    O8       O        0.17455    0.84715    0.79924    1.000
    O9       O        0.15670    0.33380    0.59153    1.000
    O10      O        0.33274    0.12971    0.53528    1.000
    O11      O        0.04955    0.64920    0.46080    1.000
    O12      O        0.24377    0.82670    0.39259    1.000
    Zn3      Zn       0.44859    0.99392    0.41599    1.000
    C7       C        0.57490    0.72610    0.26289    1.000
    H7       H        0.46710    0.67550    0.27490    1.000
    C8       C        0.70600    0.27090    0.47284    1.000
    H8       H        0.64270    0.27660    0.53360    1.000
    C9       C        0.68700    0.76850    0.53630    1.000
    H9       H        0.75390    0.77730    0.47700    1.000
    O13      O        0.60987    0.86258    0.31000    1.000
    O14      O        0.67455    0.65285    0.20076    1.000
    O15      O        0.65670    0.16620    0.40847    1.000
    O16      O        0.83274    0.37029    0.46472    1.000
    O17      O        0.54955    0.85080    0.53920    1.000
    O18      O        0.74377    0.67330    0.60741    1.000
    Zn4      Zn       0.05141    0.00608    0.91599    1.000
    C10      C        0.92510    0.27390    0.76289    1.000
    H10      H        0.03290    0.32450    0.77490    1.000
    C11      C        0.79400    0.72910    0.97284    1.000
    H11      H        0.85730    0.72340    0.03360    1.000
    C12      C        0.81300    0.23150    0.03630    1.000
    H12      H        0.74610    0.22270    0.97700    1.000
    O19      O        0.89013    0.13742    0.81000    1.000
    O20      O        0.82545    0.34715    0.70076    1.000
    O21      O        0.84330    0.83380    0.90847    1.000
    O22      O        0.66726    0.62971    0.96472    1.000
    O23      O        0.95045    0.14920    0.03920    1.000
    O24      O        0.75623    0.32670    0.10741    1.000
