# CIF file generated by openbabel 3.1.0, see https://openbabel.org
data_I
_chemical_name_common 'image0'
_cell_length_a 9.8475
_cell_length_b 29.058
_cell_length_c 10.8151
_cell_angle_alpha 90
_cell_angle_beta 92.311
_cell_angle_gamma 90
_space_group_name_H-M_alt 'P 1'
_space_group_name_Hall 'P 1'
loop_
    _symmetry_equiv_pos_as_xyz
    x,y,z
loop_
    _atom_site_label
    _atom_site_type_symbol
    _atom_site_fract_x
    _atom_site_fract_y
    _atom_site_fract_z
    _atom_site_occupancy
    C1       C        0.07640    0.34910    0.91230    1.000
    C2       C        0.98350    0.38040    0.86620    1.000
    H1       H        0.01440    0.40820    0.83040    1.000
    C3       C        0.84320    0.37210    0.87100    1.000
    H2       H        0.78080    0.39390    0.83600    1.000
    C4       C        0.79500    0.33340    0.92480    1.000
    C5       C        0.88840    0.30156    0.98420    1.000
    C6       C        0.84500    0.26380    0.06000    1.000
    C7       C        0.93700    0.23310    0.10740    1.000
    H3       H        0.90770    0.20930    0.16030    1.000
    C8       C        0.07510    0.23610    0.07940    1.000
    H4       H        0.13650    0.21300    0.10890    1.000
    C9       C        0.12230    0.27168    0.01040    1.000
    C10      C        0.03190    0.30716    0.96740    1.000
    C11      C        0.21930    0.36584    0.92000    1.000
    C12      C        0.64790    0.32250    0.90170    1.000
    C13      C        0.70420    0.26150    0.10600    1.000
    C14      C        0.26820    0.26743    0.96970    1.000
    C15      C        0.02620    0.48660    0.23040    1.000
    H5       H        0.05760    0.48330    0.31410    1.000
    C16      C        0.11820    0.48940    0.14020    1.000
    C17      C        0.26350    0.47700    0.17310    1.000
    C18      C        0.07140    0.49878    0.01400    1.000
    C19      C        0.16150    0.50640    0.91700    1.000
    C20      C        0.31120    0.51460    0.94100    1.000
    C21      C        0.11360    0.51160    0.79760    1.000
    H6       H        0.17580    0.51410    0.73300    1.000
    O1       O        0.26440    0.39064    0.83350    1.000
    O2       O        0.29300    0.35851    0.01520    1.000
    O3       O        0.56340    0.35413    0.90390    1.000
    O4       O        0.61730    0.28182    0.87120    1.000
    O5       O        0.64660    0.29673    0.14760    1.000
    O6       O        0.64620    0.22235    0.11260    1.000
    O7       O        0.28820    0.27296    0.85780    1.000
    O8       O        0.35750    0.25534    0.04920    1.000
    O9       O        0.31550    0.49100    0.27500    1.000
    O10      O        0.32210    0.45016    0.10160    1.000
    O11      O        0.34000    0.54627    0.01520    1.000
    O12      O        0.39500    0.49090    0.88390    1.000
    Er1      Er       0.45512    0.41877    0.95764    1.000
    Er2      Er       0.46109    0.25170    0.23726    1.000
    C22      C        0.92360    0.84910    0.58770    1.000
    C23      C        0.01650    0.88040    0.63380    1.000
    H7       H        0.98560    0.90820    0.66960    1.000
    C24      C        0.15680    0.87210    0.62900    1.000
    H8       H        0.21920    0.89390    0.66400    1.000
    C25      C        0.20500    0.83340    0.57520    1.000
    C26      C        0.11160    0.80156    0.51580    1.000
    C27      C        0.15500    0.76380    0.44000    1.000
    C28      C        0.06300    0.73310    0.39260    1.000
    H9       H        0.09230    0.70930    0.33970    1.000
    C29      C        0.92490    0.73610    0.42060    1.000
    H10      H        0.86350    0.71300    0.39110    1.000
    C30      C        0.87770    0.77168    0.48960    1.000
    C31      C        0.96810    0.80716    0.53260    1.000
    C32      C        0.78070    0.86584    0.58000    1.000
    C33      C        0.35210    0.82250    0.59830    1.000
    C34      C        0.29580    0.76150    0.39400    1.000
    C35      C        0.73180    0.76743    0.53030    1.000
    C36      C        0.97380    0.98660    0.26960    1.000
    H11      H        0.94240    0.98330    0.18590    1.000
    C37      C        0.88180    0.98940    0.35980    1.000
    C38      C        0.73650    0.97700    0.32690    1.000
    C39      C        0.92860    0.99878    0.48600    1.000
    C40      C        0.83850    0.00640    0.58300    1.000
    C41      C        0.68880    0.01460    0.55900    1.000
    C42      C        0.88640    0.01160    0.70240    1.000
    H12      H        0.82420    0.01410    0.76700    1.000
    O13      O        0.73560    0.89064    0.66650    1.000
    O14      O        0.70700    0.85851    0.48480    1.000
    O15      O        0.43660    0.85413    0.59610    1.000
    O16      O        0.38270    0.78182    0.62880    1.000
    O17      O        0.35340    0.79673    0.35240    1.000
    O18      O        0.35380    0.72235    0.38740    1.000
    O19      O        0.71180    0.77296    0.64220    1.000
    O20      O        0.64250    0.75534    0.45080    1.000
    O21      O        0.68450    0.99100    0.22500    1.000
    O22      O        0.67790    0.95016    0.39840    1.000
    O23      O        0.66000    0.04627    0.48480    1.000
    O24      O        0.60500    0.99090    0.61610    1.000
    Er3      Er       0.54488    0.91877    0.54236    1.000
    Er4      Er       0.53891    0.75170    0.26274    1.000
    C43      C        0.92360    0.65090    0.08770    1.000
    C44      C        0.01650    0.61960    0.13380    1.000
    H13      H        0.98560    0.59180    0.16960    1.000
    C45      C        0.15680    0.62790    0.12900    1.000
    H14      H        0.21920    0.60610    0.16400    1.000
    C46      C        0.20500    0.66660    0.07520    1.000
    C47      C        0.11160    0.69844    0.01580    1.000
    C48      C        0.15500    0.73620    0.94000    1.000
    C49      C        0.06300    0.76690    0.89260    1.000
    H15      H        0.09230    0.79070    0.83970    1.000
    C50      C        0.92490    0.76390    0.92060    1.000
    H16      H        0.86350    0.78700    0.89110    1.000
    C51      C        0.87770    0.72832    0.98960    1.000
    C52      C        0.96810    0.69284    0.03260    1.000
    C53      C        0.78070    0.63416    0.08000    1.000
    C54      C        0.35210    0.67750    0.09830    1.000
    C55      C        0.29580    0.73850    0.89400    1.000
    C56      C        0.73180    0.73257    0.03030    1.000
    C57      C        0.97380    0.51340    0.76960    1.000
    H17      H        0.94240    0.51670    0.68590    1.000
    C58      C        0.88180    0.51060    0.85980    1.000
    C59      C        0.73650    0.52300    0.82690    1.000
    C60      C        0.92860    0.50122    0.98600    1.000
    C61      C        0.83850    0.49360    0.08300    1.000
    C62      C        0.68880    0.48540    0.05900    1.000
    C63      C        0.88640    0.48840    0.20240    1.000
    H18      H        0.82420    0.48590    0.26700    1.000
    O25      O        0.73560    0.60936    0.16650    1.000
    O26      O        0.70700    0.64149    0.98480    1.000
    O27      O        0.43660    0.64587    0.09610    1.000
    O28      O        0.38270    0.71818    0.12880    1.000
    O29      O        0.35340    0.70327    0.85240    1.000
    O30      O        0.35380    0.77765    0.88740    1.000
    O31      O        0.71180    0.72704    0.14220    1.000
    O32      O        0.64250    0.74466    0.95080    1.000
    O33      O        0.68450    0.50900    0.72500    1.000
    O34      O        0.67790    0.54984    0.89840    1.000
    O35      O        0.66000    0.45373    0.98480    1.000
    O36      O        0.60500    0.50910    0.11610    1.000
    Er5      Er       0.54488    0.58123    0.04236    1.000
    Er6      Er       0.53891    0.74830    0.76274    1.000
    C64      C        0.07640    0.15090    0.41230    1.000
    C65      C        0.98350    0.11960    0.36620    1.000
    H19      H        0.01440    0.09180    0.33040    1.000
    C66      C        0.84320    0.12790    0.37100    1.000
    H20      H        0.78080    0.10610    0.33600    1.000
    C67      C        0.79500    0.16660    0.42480    1.000
    C68      C        0.88840    0.19844    0.48420    1.000
    C69      C        0.84500    0.23620    0.56000    1.000
    C70      C        0.93700    0.26690    0.60740    1.000
    H21      H        0.90770    0.29070    0.66030    1.000
    C71      C        0.07510    0.26390    0.57940    1.000
    H22      H        0.13650    0.28700    0.60890    1.000
    C72      C        0.12230    0.22832    0.51040    1.000
    C73      C        0.03190    0.19284    0.46740    1.000
    C74      C        0.21930    0.13416    0.42000    1.000
    C75      C        0.64790    0.17750    0.40170    1.000
    C76      C        0.70420    0.23850    0.60600    1.000
    C77      C        0.26820    0.23257    0.46970    1.000
    C78      C        0.02620    0.01340    0.73040    1.000
    H23      H        0.05760    0.01670    0.81410    1.000
    C79      C        0.11820    0.01060    0.64020    1.000
    C80      C        0.26350    0.02300    0.67310    1.000
    C81      C        0.07140    0.00122    0.51400    1.000
    C82      C        0.16150    0.99360    0.41700    1.000
    C83      C        0.31120    0.98540    0.44100    1.000
    C84      C        0.11360    0.98840    0.29760    1.000
    H24      H        0.17580    0.98590    0.23300    1.000
    O37      O        0.26440    0.10936    0.33350    1.000
    O38      O        0.29300    0.14149    0.51520    1.000
    O39      O        0.56340    0.14587    0.40390    1.000
    O40      O        0.61730    0.21818    0.37120    1.000
    O41      O        0.64660    0.20327    0.64760    1.000
    O42      O        0.64620    0.27765    0.61260    1.000
    O43      O        0.28820    0.22704    0.35780    1.000
    O44      O        0.35750    0.24466    0.54920    1.000
    O45      O        0.31550    0.00900    0.77500    1.000
    O46      O        0.32210    0.04984    0.60160    1.000
    O47      O        0.34000    0.95373    0.51520    1.000
    O48      O        0.39500    0.00910    0.38390    1.000
    Er7      Er       0.45512    0.08123    0.45764    1.000
    Er8      Er       0.46109    0.24830    0.73726    1.000
