# CIF file generated by openbabel 3.1.0, see https://openbabel.org
data_I
_chemical_name_common 'image0'
_cell_length_a 11.046
_cell_length_b 11.633
_cell_length_c 16.246
_cell_angle_alpha 78.69
_cell_angle_beta 73.81
_cell_angle_gamma 88.58
_space_group_name_H-M_alt 'P 1'
_space_group_name_Hall 'P 1'
loop_
    _symmetry_equiv_pos_as_xyz
    x,y,z
loop_
    _atom_site_label
    _atom_site_type_symbol
    _atom_site_fract_x
    _atom_site_fract_y
    _atom_site_fract_z
    _atom_site_occupancy
    Eu1      Eu       0.93434    0.93808    0.19417    1.000
    Eu2      Eu       0.54926    0.55298    0.30958    1.000
    O1       O        0.14220    0.87710    0.21790    1.000
    O2       O        0.90350    0.73930    0.26520    1.000
    O3       O        0.72690    0.89330    0.19650    1.000
    O4       O        0.57910    0.75370    0.23780    1.000
    O5       O        0.02400    0.86360    0.06670    1.000
    O6       O        0.07770    0.90380    0.92260    1.000
    O7       O        0.34200    0.61420    0.28620    1.000
    O8       O        0.90320    0.95620    0.34610    1.000
    O9       O        0.82170    0.09440    0.26590    1.000
    O10      O        0.34000    0.60490    0.76500    1.000
    O11      O        0.11170    0.06550    0.18550    1.000
    O12      O        0.75800    0.59700    0.30330    1.000
    O13      O        0.56450    0.39680    0.42390    1.000
    O14      O        0.37060    0.42550    0.31770    1.000
    O15      O        0.41580    0.46240    0.84470    1.000
    O16      O        0.53520    0.36770    0.56580    1.000
    C1       C        0.86870    0.63260    0.28140    1.000
    C2       C        0.17790    0.98070    0.20570    1.000
    C3       C        0.39400    0.92110    0.21980    1.000
    H1       H        0.37050    0.84310    0.22570    1.000
    C4       C        0.30420    0.51040    0.29740    1.000
    C5       C        0.30630    0.00800    0.21360    1.000
    C6       C        0.22840    0.70580    0.91530    1.000
    H2       H        0.20700    0.73890    0.86450    1.000
    C7       C        0.84690    0.05220    0.33610    1.000
    C8       C        0.35870    0.55860    0.83630    1.000
    C9       C        0.17900    0.74940    0.99090    1.000
    C10      C        0.61550    0.85850    0.21810    1.000
    C11      C        0.08790    0.84750    0.99330    1.000
    C12      C        0.96940    0.54170    0.27880    1.000
    C13      C        0.51580    0.95020    0.21720    1.000
    C14      C        0.46220    0.15540    0.20710    1.000
    H3       H        0.48420    0.23330    0.20310    1.000
    C15      C        0.31010    0.61260    0.91510    1.000
    C16      C        0.34630    0.56800    0.98920    1.000
    H4       H        0.40230    0.50700    0.98860    1.000
    C17      C        0.21420    0.70140    0.06560    1.000
    H5       H        0.17960    0.72900    0.11690    1.000
    C18      C        0.69080    0.25960    0.48520    1.000
    C19      C        0.55070    0.06740    0.21080    1.000
    H6       H        0.63270    0.08680    0.20910    1.000
    C20      C        0.08800    0.57030    0.28500    1.000
    H7       H        0.10770    0.64650    0.28770    1.000
    C21      C        0.17640    0.48370    0.28690    1.000
    C22      C        0.72880    0.20830    0.41180    1.000
    H8       H        0.69680    0.23410    0.36440    1.000
    C23      C        0.59070    0.35010    0.49150    1.000
    C24      C        0.81470    0.11830    0.40930    1.000
    C25      C        0.86640    0.08470    0.47860    1.000
    H9       H        0.92500    0.02570    0.47680    1.000
    C26      C        0.30060    0.61250    0.06480    1.000
    H10      H        0.32740    0.58340    0.11420    1.000
    C27      C        0.14730    0.37280    0.27950    1.000
    H11      H        0.20710    0.31520    0.28040    1.000
    C28      C        0.83180    0.13790    0.55030    1.000
    H12      H        0.86700    0.11450    0.59640    1.000
    C29      C        0.74560    0.22540    0.55390    1.000
    H13      H        0.72360    0.26180    0.60190    1.000
    C30      C        0.94170    0.43030    0.27200    1.000
    H14      H        0.86230    0.41160    0.26820    1.000
    C31      C        0.03310    0.34510    0.27090    1.000
    H15      H        0.01610    0.27000    0.26430    1.000
    C32      C        0.33970    0.12310    0.20940    1.000
    H16      H        0.27970    0.18040    0.20820    1.000
    Eu3      Eu       0.06566    0.06192    0.80583    1.000
    Eu4      Eu       0.45074    0.44702    0.69042    1.000
    O17      O        0.85780    0.12290    0.78210    1.000
    O18      O        0.09650    0.26070    0.73480    1.000
    O19      O        0.27310    0.10670    0.80350    1.000
    O20      O        0.42090    0.24630    0.76220    1.000
    O21      O        0.97600    0.13640    0.93330    1.000
    O22      O        0.92230    0.09620    0.07740    1.000
    O23      O        0.65800    0.38580    0.71380    1.000
    O24      O        0.09680    0.04380    0.65390    1.000
    O25      O        0.17830    0.90560    0.73410    1.000
    O26      O        0.66000    0.39510    0.23500    1.000
    O27      O        0.88830    0.93450    0.81450    1.000
    O28      O        0.24200    0.40300    0.69670    1.000
    O29      O        0.43550    0.60320    0.57610    1.000
    O30      O        0.62940    0.57450    0.68230    1.000
    O31      O        0.58420    0.53760    0.15530    1.000
    O32      O        0.46480    0.63230    0.43420    1.000
    C33      C        0.13130    0.36740    0.71860    1.000
    C34      C        0.82210    0.01930    0.79430    1.000
    C35      C        0.60600    0.07890    0.78020    1.000
    H17      H        0.62950    0.15690    0.77430    1.000
    C36      C        0.69580    0.48960    0.70260    1.000
    C37      C        0.69370    0.99200    0.78640    1.000
    C38      C        0.77160    0.29420    0.08470    1.000
    H18      H        0.79300    0.26110    0.13550    1.000
    C39      C        0.15310    0.94780    0.66390    1.000
    C40      C        0.64130    0.44140    0.16370    1.000
    C41      C        0.82100    0.25060    0.00910    1.000
    C42      C        0.38450    0.14150    0.78190    1.000
    C43      C        0.91210    0.15250    0.00670    1.000
    C44      C        0.03060    0.45830    0.72120    1.000
    C45      C        0.48420    0.04980    0.78280    1.000
    C46      C        0.53780    0.84460    0.79290    1.000
    H19      H        0.51580    0.76670    0.79690    1.000
    C47      C        0.68990    0.38740    0.08490    1.000
    C48      C        0.65370    0.43200    0.01080    1.000
    H20      H        0.59770    0.49300    0.01140    1.000
    C49      C        0.78580    0.29860    0.93440    1.000
    H21      H        0.82040    0.27100    0.88310    1.000
    C50      C        0.30920    0.74040    0.51480    1.000
    C51      C        0.44930    0.93260    0.78920    1.000
    H22      H        0.36730    0.91320    0.79090    1.000
    C52      C        0.91200    0.42970    0.71500    1.000
    H23      H        0.89230    0.35350    0.71230    1.000
    C53      C        0.82360    0.51630    0.71310    1.000
    C54      C        0.27120    0.79170    0.58820    1.000
    H24      H        0.30320    0.76590    0.63560    1.000
    C55      C        0.40930    0.64990    0.50850    1.000
    C56      C        0.18530    0.88170    0.59070    1.000
    C57      C        0.13360    0.91530    0.52140    1.000
    H25      H        0.07500    0.97430    0.52320    1.000
    C58      C        0.69940    0.38750    0.93520    1.000
    H26      H        0.67260    0.41660    0.88580    1.000
    C59      C        0.85270    0.62720    0.72050    1.000
    H27      H        0.79290    0.68480    0.71960    1.000
    C60      C        0.16820    0.86210    0.44970    1.000
    H28      H        0.13300    0.88550    0.40360    1.000
    C61      C        0.25440    0.77460    0.44610    1.000
    H29      H        0.27640    0.73820    0.39810    1.000
    C62      C        0.05830    0.56970    0.72800    1.000
    H30      H        0.13770    0.58840    0.73180    1.000
    C63      C        0.96690    0.65490    0.72910    1.000
    H31      H        0.98390    0.73000    0.73570    1.000
    C64      C        0.66030    0.87690    0.79060    1.000
    H32      H        0.72030    0.81960    0.79180    1.000
