# CIF file generated by openbabel 3.1.0, see https://openbabel.org
data_I
_chemical_name_common 'MOCHES_clean'
_cell_length_a 6.6764
_cell_length_b 7.0684
_cell_length_c 7.8103
_cell_angle_alpha 111.141
_cell_angle_beta 95.415
_cell_angle_gamma 90.457
_space_group_name_H-M_alt 'P 1'
_space_group_name_Hall 'P 1'
loop_
    _symmetry_equiv_pos_as_xyz
    x,y,z
loop_
    _atom_site_label
    _atom_site_type_symbol
    _atom_site_fract_x
    _atom_site_fract_y
    _atom_site_fract_z
    _atom_site_occupancy
    Pr1      Pr       0.86820    0.77721    0.06593    1.000
    Pr2      Pr       0.13180    0.22279    0.93407    1.000
    P1       P        0.32502    0.74746    0.97927    1.000
    P2       P        0.67498    0.25254    0.02073    1.000
    H1       H        0.36220    0.72040    0.79780    1.000
    H2       H        0.63780    0.27960    0.20220    1.000
    C1       C        0.06100    0.90830    0.50060    1.000
    C2       C        0.93900    0.09170    0.49940    1.000
    O1       O        0.19850    0.93740    0.03410    1.000
    O2       O        0.51980    0.77190    0.10130    1.000
    O3       O        0.18320    0.57470    0.97500    1.000
    O4       O        0.05220    0.75990    0.35220    1.000
    O5       O        0.83970    0.07600    0.35090    1.000
    O6       O        0.80150    0.06260    0.96590    1.000
    O7       O        0.48020    0.22810    0.89870    1.000
    O8       O        0.81680    0.42530    0.02500    1.000
    O9       O        0.94780    0.24010    0.64780    1.000
    O10      O        0.16030    0.92400    0.64910    1.000
