# CIF file generated by openbabel 3.1.0, see https://openbabel.org
data_I
_chemical_name_common 'image0'
_cell_length_a 51.363
_cell_length_b 51.363
_cell_length_c 51.363
_cell_angle_alpha 90
_cell_angle_beta 90
_cell_angle_gamma 90
_space_group_name_H-M_alt 'P 1'
_space_group_name_Hall 'P 1'
loop_
    _symmetry_equiv_pos_as_xyz
    x,y,z
loop_
    _atom_site_label
    _atom_site_type_symbol
    _atom_site_fract_x
    _atom_site_fract_y
    _atom_site_fract_z
    _atom_site_occupancy
    Al1      Al       0.13380    0.32990    0.28050    1.000
    Al2      Al       0.03840    0.35580    0.31120    1.000
    Al3      Al       0.09530    0.36160    0.22240    1.000
    P1       P        0.08880    0.37040    0.28110    1.000
    P2       P        0.13470    0.31620    0.22080    1.000
    P3       P        0.04600    0.35170    0.18830    1.000
    O1       O        0.08090    0.37390    0.25040    1.000
    O2       O        0.11410    0.38730    0.28700    1.000
    O3       O        0.10170    0.34090    0.28130    1.000
    O4       O        0.06590    0.37120    0.29880    1.000
    O5       O        0.13510    0.30930    0.25320    1.000
    O6       O        0.13460    0.29710    0.19960    1.000
    O7       O        0.15730    0.33650    0.21810    1.000
    O8       O        0.02830    0.33680    0.28590    1.000
    O9       O        0.05540    0.33040    0.16780    1.000
    O10      O        0.02660    0.38200    0.33000    1.000
    O11      O        0.10650    0.32950    0.21710    1.000
    O12      O        0.07340    0.36610    0.19960    1.000
    O13      O        0.03050    0.34130    0.21170    1.000
    O14      O        0.02790    0.37250    0.17830    1.000
    Al4      Al       0.13380    0.82990    0.78050    1.000
    Al5      Al       0.03840    0.85580    0.81120    1.000
    Al6      Al       0.09530    0.86160    0.72240    1.000
    P4       P        0.08880    0.87040    0.78110    1.000
    P5       P        0.13470    0.81620    0.72080    1.000
    P6       P        0.04600    0.85170    0.68830    1.000
    O15      O        0.08090    0.87390    0.75040    1.000
    O16      O        0.11410    0.88730    0.78700    1.000
    O17      O        0.10170    0.84090    0.78130    1.000
    O18      O        0.06590    0.87120    0.79880    1.000
    O19      O        0.13510    0.80930    0.75320    1.000
    O20      O        0.13460    0.79710    0.69960    1.000
    O21      O        0.15730    0.83650    0.71810    1.000
    O22      O        0.02830    0.83680    0.78590    1.000
    O23      O        0.05540    0.83040    0.66780    1.000
    O24      O        0.02660    0.88200    0.83000    1.000
    O25      O        0.10650    0.82950    0.71710    1.000
    O26      O        0.07340    0.86610    0.69960    1.000
    O27      O        0.03050    0.84130    0.71170    1.000
    O28      O        0.02790    0.87250    0.67830    1.000
    Al7      Al       0.63380    0.32990    0.78050    1.000
    Al8      Al       0.53840    0.35580    0.81120    1.000
    Al9      Al       0.59530    0.36160    0.72240    1.000
    P7       P        0.58880    0.37040    0.78110    1.000
    P8       P        0.63470    0.31620    0.72080    1.000
    P9       P        0.54600    0.35170    0.68830    1.000
    O29      O        0.58090    0.37390    0.75040    1.000
    O30      O        0.61410    0.38730    0.78700    1.000
    O31      O        0.60170    0.34090    0.78130    1.000
    O32      O        0.56590    0.37120    0.79880    1.000
    O33      O        0.63510    0.30930    0.75320    1.000
    O34      O        0.63460    0.29710    0.69960    1.000
    O35      O        0.65730    0.33650    0.71810    1.000
    O36      O        0.52830    0.33680    0.78590    1.000
    O37      O        0.55540    0.33040    0.66780    1.000
    O38      O        0.52660    0.38200    0.83000    1.000
    O39      O        0.60650    0.32950    0.71710    1.000
    O40      O        0.57340    0.36610    0.69960    1.000
    O41      O        0.53050    0.34130    0.71170    1.000
    O42      O        0.52790    0.37250    0.67830    1.000
    Al10     Al       0.63380    0.82990    0.28050    1.000
    Al11     Al       0.53840    0.85580    0.31120    1.000
    Al12     Al       0.59530    0.86160    0.22240    1.000
    P10      P        0.58880    0.87040    0.28110    1.000
    P11      P        0.63470    0.81620    0.22080    1.000
    P12      P        0.54600    0.85170    0.18830    1.000
    O43      O        0.58090    0.87390    0.25040    1.000
    O44      O        0.61410    0.88730    0.28700    1.000
    O45      O        0.60170    0.84090    0.28130    1.000
    O46      O        0.56590    0.87120    0.29880    1.000
    O47      O        0.63510    0.80930    0.25320    1.000
    O48      O        0.63460    0.79710    0.19960    1.000
    O49      O        0.65730    0.83650    0.21810    1.000
    O50      O        0.52830    0.83680    0.28590    1.000
    O51      O        0.55540    0.83040    0.16780    1.000
    O52      O        0.52660    0.88200    0.33000    1.000
    O53      O        0.60650    0.82950    0.21710    1.000
    O54      O        0.57340    0.86610    0.19960    1.000
    O55      O        0.53050    0.84130    0.21170    1.000
    O56      O        0.52790    0.87250    0.17830    1.000
    Al13     Al       0.86620    0.67010    0.28050    1.000
    Al14     Al       0.96160    0.64420    0.31120    1.000
    Al15     Al       0.90470    0.63840    0.22240    1.000
    P13      P        0.91120    0.62960    0.28110    1.000
    P14      P        0.86530    0.68380    0.22080    1.000
    P15      P        0.95400    0.64830    0.18830    1.000
    O57      O        0.91910    0.62610    0.25040    1.000
    O58      O        0.88590    0.61270    0.28700    1.000
    O59      O        0.89830    0.65910    0.28130    1.000
    O60      O        0.93410    0.62880    0.29880    1.000
    O61      O        0.86490    0.69070    0.25320    1.000
    O62      O        0.86540    0.70290    0.19960    1.000
    O63      O        0.84270    0.66350    0.21810    1.000
    O64      O        0.97170    0.66320    0.28590    1.000
    O65      O        0.94460    0.66960    0.16780    1.000
    O66      O        0.97340    0.61800    0.33000    1.000
    O67      O        0.89350    0.67050    0.21710    1.000
    O68      O        0.92660    0.63390    0.19960    1.000
    O69      O        0.96950    0.65870    0.21170    1.000
    O70      O        0.97210    0.62750    0.17830    1.000
    Al16     Al       0.86620    0.17010    0.78050    1.000
    Al17     Al       0.96160    0.14420    0.81120    1.000
    Al18     Al       0.90470    0.13840    0.72240    1.000
    P16      P        0.91120    0.12960    0.78110    1.000
    P17      P        0.86530    0.18380    0.72080    1.000
    P18      P        0.95400    0.14830    0.68830    1.000
    O71      O        0.91910    0.12610    0.75040    1.000
    O72      O        0.88590    0.11270    0.78700    1.000
    O73      O        0.89830    0.15910    0.78130    1.000
    O74      O        0.93410    0.12880    0.79880    1.000
    O75      O        0.86490    0.19070    0.75320    1.000
    O76      O        0.86540    0.20290    0.69960    1.000
    O77      O        0.84270    0.16350    0.71810    1.000
    O78      O        0.97170    0.16320    0.78590    1.000
    O79      O        0.94460    0.16960    0.66780    1.000
    O80      O        0.97340    0.11800    0.83000    1.000
    O81      O        0.89350    0.17050    0.71710    1.000
    O82      O        0.92660    0.13390    0.69960    1.000
    O83      O        0.96950    0.15870    0.71170    1.000
    O84      O        0.97210    0.12750    0.67830    1.000
    Al19     Al       0.36620    0.67010    0.78050    1.000
    Al20     Al       0.46160    0.64420    0.81120    1.000
    Al21     Al       0.40470    0.63840    0.72240    1.000
    P19      P        0.41120    0.62960    0.78110    1.000
    P20      P        0.36530    0.68380    0.72080    1.000
    P21      P        0.45400    0.64830    0.68830    1.000
    O85      O        0.41910    0.62610    0.75040    1.000
    O86      O        0.38590    0.61270    0.78700    1.000
    O87      O        0.39830    0.65910    0.78130    1.000
    O88      O        0.43410    0.62880    0.79880    1.000
    O89      O        0.36490    0.69070    0.75320    1.000
    O90      O        0.36540    0.70290    0.69960    1.000
    O91      O        0.34270    0.66350    0.71810    1.000
    O92      O        0.47170    0.66320    0.78590    1.000
    O93      O        0.44460    0.66960    0.66780    1.000
    O94      O        0.47340    0.61800    0.83000    1.000
    O95      O        0.39350    0.67050    0.71710    1.000
    O96      O        0.42660    0.63390    0.69960    1.000
    O97      O        0.46950    0.65870    0.71170    1.000
    O98      O        0.47210    0.62750    0.67830    1.000
    Al22     Al       0.36620    0.17010    0.28050    1.000
    Al23     Al       0.46160    0.14420    0.31120    1.000
    Al24     Al       0.40470    0.13840    0.22240    1.000
    P22      P        0.41120    0.12960    0.28110    1.000
    P23      P        0.36530    0.18380    0.22080    1.000
    P24      P        0.45400    0.14830    0.18830    1.000
    O99      O        0.41910    0.12610    0.25040    1.000
    O100     O        0.38590    0.11270    0.28700    1.000
    O101     O        0.39830    0.15910    0.28130    1.000
    O102     O        0.43410    0.12880    0.29880    1.000
    O103     O        0.36490    0.19070    0.25320    1.000
    O104     O        0.36540    0.20290    0.19960    1.000
    O105     O        0.34270    0.16350    0.21810    1.000
    O106     O        0.47170    0.16320    0.28590    1.000
    O107     O        0.44460    0.16960    0.16780    1.000
    O108     O        0.47340    0.11800    0.33000    1.000
    O109     O        0.39350    0.17050    0.21710    1.000
    O110     O        0.42660    0.13390    0.19960    1.000
    O111     O        0.46950    0.15870    0.21170    1.000
    O112     O        0.47210    0.12750    0.17830    1.000
    Al25     Al       0.86620    0.32990    0.71950    1.000
    Al26     Al       0.96160    0.35580    0.68880    1.000
    Al27     Al       0.90470    0.36160    0.77760    1.000
    P25      P        0.91120    0.37040    0.71890    1.000
    P26      P        0.86530    0.31620    0.77920    1.000
    P27      P        0.95400    0.35170    0.81170    1.000
    O113     O        0.91910    0.37390    0.74960    1.000
    O114     O        0.88590    0.38730    0.71300    1.000
    O115     O        0.89830    0.34090    0.71870    1.000
    O116     O        0.93410    0.37120    0.70120    1.000
    O117     O        0.86490    0.30930    0.74680    1.000
    O118     O        0.86540    0.29710    0.80040    1.000
    O119     O        0.84270    0.33650    0.78190    1.000
    O120     O        0.97170    0.33680    0.71410    1.000
    O121     O        0.94460    0.33040    0.83220    1.000
    O122     O        0.97340    0.38200    0.67000    1.000
    O123     O        0.89350    0.32950    0.78290    1.000
    O124     O        0.92660    0.36610    0.80040    1.000
    O125     O        0.96950    0.34130    0.78830    1.000
    O126     O        0.97210    0.37250    0.82170    1.000
    Al28     Al       0.86620    0.82990    0.21950    1.000
    Al29     Al       0.96160    0.85580    0.18880    1.000
    Al30     Al       0.90470    0.86160    0.27760    1.000
    P28      P        0.91120    0.87040    0.21890    1.000
    P29      P        0.86530    0.81620    0.27920    1.000
    P30      P        0.95400    0.85170    0.31170    1.000
    O127     O        0.91910    0.87390    0.24960    1.000
    O128     O        0.88590    0.88730    0.21300    1.000
    O129     O        0.89830    0.84090    0.21870    1.000
    O130     O        0.93410    0.87120    0.20120    1.000
    O131     O        0.86490    0.80930    0.24680    1.000
    O132     O        0.86540    0.79710    0.30040    1.000
    O133     O        0.84270    0.83650    0.28190    1.000
    O134     O        0.97170    0.83680    0.21410    1.000
    O135     O        0.94460    0.83040    0.33220    1.000
    O136     O        0.97340    0.88200    0.17000    1.000
    O137     O        0.89350    0.82950    0.28290    1.000
    O138     O        0.92660    0.86610    0.30040    1.000
    O139     O        0.96950    0.84130    0.28830    1.000
    O140     O        0.97210    0.87250    0.32170    1.000
    Al31     Al       0.36620    0.32990    0.21950    1.000
    Al32     Al       0.46160    0.35580    0.18880    1.000
    Al33     Al       0.40470    0.36160    0.27760    1.000
    P31      P        0.41120    0.37040    0.21890    1.000
    P32      P        0.36530    0.31620    0.27920    1.000
    P33      P        0.45400    0.35170    0.31170    1.000
    O141     O        0.41910    0.37390    0.24960    1.000
    O142     O        0.38590    0.38730    0.21300    1.000
    O143     O        0.39830    0.34090    0.21870    1.000
    O144     O        0.43410    0.37120    0.20120    1.000
    O145     O        0.36490    0.30930    0.24680    1.000
    O146     O        0.36540    0.29710    0.30040    1.000
    O147     O        0.34270    0.33650    0.28190    1.000
    O148     O        0.47170    0.33680    0.21410    1.000
    O149     O        0.44460    0.33040    0.33220    1.000
    O150     O        0.47340    0.38200    0.17000    1.000
    O151     O        0.39350    0.32950    0.28290    1.000
    O152     O        0.42660    0.36610    0.30040    1.000
    O153     O        0.46950    0.34130    0.28830    1.000
    O154     O        0.47210    0.37250    0.32170    1.000
    Al34     Al       0.36620    0.82990    0.71950    1.000
    Al35     Al       0.46160    0.85580    0.68880    1.000
    Al36     Al       0.40470    0.86160    0.77760    1.000
    P34      P        0.41120    0.87040    0.71890    1.000
    P35      P        0.36530    0.81620    0.77920    1.000
    P36      P        0.45400    0.85170    0.81170    1.000
    O155     O        0.41910    0.87390    0.74960    1.000
    O156     O        0.38590    0.88730    0.71300    1.000
    O157     O        0.39830    0.84090    0.71870    1.000
    O158     O        0.43410    0.87120    0.70120    1.000
    O159     O        0.36490    0.80930    0.74680    1.000
    O160     O        0.36540    0.79710    0.80040    1.000
    O161     O        0.34270    0.83650    0.78190    1.000
    O162     O        0.47170    0.83680    0.71410    1.000
    O163     O        0.44460    0.83040    0.83220    1.000
    O164     O        0.47340    0.88200    0.67000    1.000
    O165     O        0.39350    0.82950    0.78290    1.000
    O166     O        0.42660    0.86610    0.80040    1.000
    O167     O        0.46950    0.84130    0.78830    1.000
    O168     O        0.47210    0.87250    0.82170    1.000
    Al37     Al       0.13380    0.67010    0.71950    1.000
    Al38     Al       0.03840    0.64420    0.68880    1.000
    Al39     Al       0.09530    0.63840    0.77760    1.000
    P37      P        0.08880    0.62960    0.71890    1.000
    P38      P        0.13470    0.68380    0.77920    1.000
    P39      P        0.04600    0.64830    0.81170    1.000
    O169     O        0.08090    0.62610    0.74960    1.000
    O170     O        0.11410    0.61270    0.71300    1.000
    O171     O        0.10170    0.65910    0.71870    1.000
    O172     O        0.06590    0.62880    0.70120    1.000
    O173     O        0.13510    0.69070    0.74680    1.000
    O174     O        0.13460    0.70290    0.80040    1.000
    O175     O        0.15730    0.66350    0.78190    1.000
    O176     O        0.02830    0.66320    0.71410    1.000
    O177     O        0.05540    0.66960    0.83220    1.000
    O178     O        0.02660    0.61800    0.67000    1.000
    O179     O        0.10650    0.67050    0.78290    1.000
    O180     O        0.07340    0.63390    0.80040    1.000
    O181     O        0.03050    0.65870    0.78830    1.000
    O182     O        0.02790    0.62750    0.82170    1.000
    Al40     Al       0.13380    0.17010    0.21950    1.000
    Al41     Al       0.03840    0.14420    0.18880    1.000
    Al42     Al       0.09530    0.13840    0.27760    1.000
    P40      P        0.08880    0.12960    0.21890    1.000
    P41      P        0.13470    0.18380    0.27920    1.000
    P42      P        0.04600    0.14830    0.31170    1.000
    O183     O        0.08090    0.12610    0.24960    1.000
    O184     O        0.11410    0.11270    0.21300    1.000
    O185     O        0.10170    0.15910    0.21870    1.000
    O186     O        0.06590    0.12880    0.20120    1.000
    O187     O        0.13510    0.19070    0.24680    1.000
    O188     O        0.13460    0.20290    0.30040    1.000
    O189     O        0.15730    0.16350    0.28190    1.000
    O190     O        0.02830    0.16320    0.21410    1.000
    O191     O        0.05540    0.16960    0.33220    1.000
    O192     O        0.02660    0.11800    0.17000    1.000
    O193     O        0.10650    0.17050    0.28290    1.000
    O194     O        0.07340    0.13390    0.30040    1.000
    O195     O        0.03050    0.15870    0.28830    1.000
    O196     O        0.02790    0.12750    0.32170    1.000
    Al43     Al       0.63380    0.67010    0.21950    1.000
    Al44     Al       0.53840    0.64420    0.18880    1.000
    Al45     Al       0.59530    0.63840    0.27760    1.000
    P43      P        0.58880    0.62960    0.21890    1.000
    P44      P        0.63470    0.68380    0.27920    1.000
    P45      P        0.54600    0.64830    0.31170    1.000
    O197     O        0.58090    0.62610    0.24960    1.000
    O198     O        0.61410    0.61270    0.21300    1.000
    O199     O        0.60170    0.65910    0.21870    1.000
    O200     O        0.56590    0.62880    0.20120    1.000
    O201     O        0.63510    0.69070    0.24680    1.000
    O202     O        0.63460    0.70290    0.30040    1.000
    O203     O        0.65730    0.66350    0.28190    1.000
    O204     O        0.52830    0.66320    0.21410    1.000
    O205     O        0.55540    0.66960    0.33220    1.000
    O206     O        0.52660    0.61800    0.17000    1.000
    O207     O        0.60650    0.67050    0.28290    1.000
    O208     O        0.57340    0.63390    0.30040    1.000
    O209     O        0.53050    0.65870    0.28830    1.000
    O210     O        0.52790    0.62750    0.32170    1.000
    Al46     Al       0.63380    0.17010    0.71950    1.000
    Al47     Al       0.53840    0.14420    0.68880    1.000
    Al48     Al       0.59530    0.13840    0.77760    1.000
    P46      P        0.58880    0.12960    0.71890    1.000
    P47      P        0.63470    0.18380    0.77920    1.000
    P48      P        0.54600    0.14830    0.81170    1.000
    O211     O        0.58090    0.12610    0.74960    1.000
    O212     O        0.61410    0.11270    0.71300    1.000
    O213     O        0.60170    0.15910    0.71870    1.000
    O214     O        0.56590    0.12880    0.70120    1.000
    O215     O        0.63510    0.19070    0.74680    1.000
    O216     O        0.63460    0.20290    0.80040    1.000
    O217     O        0.65730    0.16350    0.78190    1.000
    O218     O        0.52830    0.16320    0.71410    1.000
    O219     O        0.55540    0.16960    0.83220    1.000
    O220     O        0.52660    0.11800    0.67000    1.000
    O221     O        0.60650    0.17050    0.78290    1.000
    O222     O        0.57340    0.13390    0.80040    1.000
    O223     O        0.53050    0.15870    0.78830    1.000
    O224     O        0.52790    0.12750    0.82170    1.000
    Al49     Al       0.28050    0.13380    0.32990    1.000
    Al50     Al       0.31120    0.03840    0.35580    1.000
    Al51     Al       0.22240    0.09530    0.36160    1.000
    P49      P        0.28110    0.08880    0.37040    1.000
    P50      P        0.22080    0.13470    0.31620    1.000
    P51      P        0.18830    0.04600    0.35170    1.000
    O225     O        0.25040    0.08090    0.37390    1.000
    O226     O        0.28700    0.11410    0.38730    1.000
    O227     O        0.28130    0.10170    0.34090    1.000
    O228     O        0.29880    0.06590    0.37120    1.000
    O229     O        0.25320    0.13510    0.30930    1.000
    O230     O        0.19960    0.13460    0.29710    1.000
    O231     O        0.21810    0.15730    0.33650    1.000
    O232     O        0.28590    0.02830    0.33680    1.000
    O233     O        0.16780    0.05540    0.33040    1.000
    O234     O        0.33000    0.02660    0.38200    1.000
    O235     O        0.21710    0.10650    0.32950    1.000
    O236     O        0.19960    0.07340    0.36610    1.000
    O237     O        0.21170    0.03050    0.34130    1.000
    O238     O        0.17830    0.02790    0.37250    1.000
    Al52     Al       0.28050    0.63380    0.82990    1.000
    Al53     Al       0.31120    0.53840    0.85580    1.000
    Al54     Al       0.22240    0.59530    0.86160    1.000
    P52      P        0.28110    0.58880    0.87040    1.000
    P53      P        0.22080    0.63470    0.81620    1.000
    P54      P        0.18830    0.54600    0.85170    1.000
    O239     O        0.25040    0.58090    0.87390    1.000
    O240     O        0.28700    0.61410    0.88730    1.000
    O241     O        0.28130    0.60170    0.84090    1.000
    O242     O        0.29880    0.56590    0.87120    1.000
    O243     O        0.25320    0.63510    0.80930    1.000
    O244     O        0.19960    0.63460    0.79710    1.000
    O245     O        0.21810    0.65730    0.83650    1.000
    O246     O        0.28590    0.52830    0.83680    1.000
    O247     O        0.16780    0.55540    0.83040    1.000
    O248     O        0.33000    0.52660    0.88200    1.000
    O249     O        0.21710    0.60650    0.82950    1.000
    O250     O        0.19960    0.57340    0.86610    1.000
    O251     O        0.21170    0.53050    0.84130    1.000
    O252     O        0.17830    0.52790    0.87250    1.000
    Al55     Al       0.78050    0.13380    0.82990    1.000
    Al56     Al       0.81120    0.03840    0.85580    1.000
    Al57     Al       0.72240    0.09530    0.86160    1.000
    P55      P        0.78110    0.08880    0.87040    1.000
    P56      P        0.72080    0.13470    0.81620    1.000
    P57      P        0.68830    0.04600    0.85170    1.000
    O253     O        0.75040    0.08090    0.87390    1.000
    O254     O        0.78700    0.11410    0.88730    1.000
    O255     O        0.78130    0.10170    0.84090    1.000
    O256     O        0.79880    0.06590    0.87120    1.000
    O257     O        0.75320    0.13510    0.80930    1.000
    O258     O        0.69960    0.13460    0.79710    1.000
    O259     O        0.71810    0.15730    0.83650    1.000
    O260     O        0.78590    0.02830    0.83680    1.000
    O261     O        0.66780    0.05540    0.83040    1.000
    O262     O        0.83000    0.02660    0.88200    1.000
    O263     O        0.71710    0.10650    0.82950    1.000
    O264     O        0.69960    0.07340    0.86610    1.000
    O265     O        0.71170    0.03050    0.84130    1.000
    O266     O        0.67830    0.02790    0.87250    1.000
    Al58     Al       0.78050    0.63380    0.32990    1.000
    Al59     Al       0.81120    0.53840    0.35580    1.000
    Al60     Al       0.72240    0.59530    0.36160    1.000
    P58      P        0.78110    0.58880    0.37040    1.000
    P59      P        0.72080    0.63470    0.31620    1.000
    P60      P        0.68830    0.54600    0.35170    1.000
    O267     O        0.75040    0.58090    0.37390    1.000
    O268     O        0.78700    0.61410    0.38730    1.000
    O269     O        0.78130    0.60170    0.34090    1.000
    O270     O        0.79880    0.56590    0.37120    1.000
    O271     O        0.75320    0.63510    0.30930    1.000
    O272     O        0.69960    0.63460    0.29710    1.000
    O273     O        0.71810    0.65730    0.33650    1.000
    O274     O        0.78590    0.52830    0.33680    1.000
    O275     O        0.66780    0.55540    0.33040    1.000
    O276     O        0.83000    0.52660    0.38200    1.000
    O277     O        0.71710    0.60650    0.32950    1.000
    O278     O        0.69960    0.57340    0.36610    1.000
    O279     O        0.71170    0.53050    0.34130    1.000
    O280     O        0.67830    0.52790    0.37250    1.000
    Al61     Al       0.28050    0.86620    0.67010    1.000
    Al62     Al       0.31120    0.96160    0.64420    1.000
    Al63     Al       0.22240    0.90470    0.63840    1.000
    P61      P        0.28110    0.91120    0.62960    1.000
    P62      P        0.22080    0.86530    0.68380    1.000
    P63      P        0.18830    0.95400    0.64830    1.000
    O281     O        0.25040    0.91910    0.62610    1.000
    O282     O        0.28700    0.88590    0.61270    1.000
    O283     O        0.28130    0.89830    0.65910    1.000
    O284     O        0.29880    0.93410    0.62880    1.000
    O285     O        0.25320    0.86490    0.69070    1.000
    O286     O        0.19960    0.86540    0.70290    1.000
    O287     O        0.21810    0.84270    0.66350    1.000
    O288     O        0.28590    0.97170    0.66320    1.000
    O289     O        0.16780    0.94460    0.66960    1.000
    O290     O        0.33000    0.97340    0.61800    1.000
    O291     O        0.21710    0.89350    0.67050    1.000
    O292     O        0.19960    0.92660    0.63390    1.000
    O293     O        0.21170    0.96950    0.65870    1.000
    O294     O        0.17830    0.97210    0.62750    1.000
    Al64     Al       0.28050    0.36620    0.17010    1.000
    Al65     Al       0.31120    0.46160    0.14420    1.000
    Al66     Al       0.22240    0.40470    0.13840    1.000
    P64      P        0.28110    0.41120    0.12960    1.000
    P65      P        0.22080    0.36530    0.18380    1.000
    P66      P        0.18830    0.45400    0.14830    1.000
    O295     O        0.25040    0.41910    0.12610    1.000
    O296     O        0.28700    0.38590    0.11270    1.000
    O297     O        0.28130    0.39830    0.15910    1.000
    O298     O        0.29880    0.43410    0.12880    1.000
    O299     O        0.25320    0.36490    0.19070    1.000
    O300     O        0.19960    0.36540    0.20290    1.000
    O301     O        0.21810    0.34270    0.16350    1.000
    O302     O        0.28590    0.47170    0.16320    1.000
    O303     O        0.16780    0.44460    0.16960    1.000
    O304     O        0.33000    0.47340    0.11800    1.000
    O305     O        0.21710    0.39350    0.17050    1.000
    O306     O        0.19960    0.42660    0.13390    1.000
    O307     O        0.21170    0.46950    0.15870    1.000
    O308     O        0.17830    0.47210    0.12750    1.000
    Al67     Al       0.78050    0.86620    0.17010    1.000
    Al68     Al       0.81120    0.96160    0.14420    1.000
    Al69     Al       0.72240    0.90470    0.13840    1.000
    P67      P        0.78110    0.91120    0.12960    1.000
    P68      P        0.72080    0.86530    0.18380    1.000
    P69      P        0.68830    0.95400    0.14830    1.000
    O309     O        0.75040    0.91910    0.12610    1.000
    O310     O        0.78700    0.88590    0.11270    1.000
    O311     O        0.78130    0.89830    0.15910    1.000
    O312     O        0.79880    0.93410    0.12880    1.000
    O313     O        0.75320    0.86490    0.19070    1.000
    O314     O        0.69960    0.86540    0.20290    1.000
    O315     O        0.71810    0.84270    0.16350    1.000
    O316     O        0.78590    0.97170    0.16320    1.000
    O317     O        0.66780    0.94460    0.16960    1.000
    O318     O        0.83000    0.97340    0.11800    1.000
    O319     O        0.71710    0.89350    0.17050    1.000
    O320     O        0.69960    0.92660    0.13390    1.000
    O321     O        0.71170    0.96950    0.15870    1.000
    O322     O        0.67830    0.97210    0.12750    1.000
    Al70     Al       0.78050    0.36620    0.67010    1.000
    Al71     Al       0.81120    0.46160    0.64420    1.000
    Al72     Al       0.72240    0.40470    0.63840    1.000
    P70      P        0.78110    0.41120    0.62960    1.000
    P71      P        0.72080    0.36530    0.68380    1.000
    P72      P        0.68830    0.45400    0.64830    1.000
    O323     O        0.75040    0.41910    0.62610    1.000
    O324     O        0.78700    0.38590    0.61270    1.000
    O325     O        0.78130    0.39830    0.65910    1.000
    O326     O        0.79880    0.43410    0.62880    1.000
    O327     O        0.75320    0.36490    0.69070    1.000
    O328     O        0.69960    0.36540    0.70290    1.000
    O329     O        0.71810    0.34270    0.66350    1.000
    O330     O        0.78590    0.47170    0.66320    1.000
    O331     O        0.66780    0.44460    0.66960    1.000
    O332     O        0.83000    0.47340    0.61800    1.000
    O333     O        0.71710    0.39350    0.67050    1.000
    O334     O        0.69960    0.42660    0.63390    1.000
    O335     O        0.71170    0.46950    0.65870    1.000
    O336     O        0.67830    0.47210    0.62750    1.000
    Al73     Al       0.71950    0.86620    0.32990    1.000
    Al74     Al       0.68880    0.96160    0.35580    1.000
    Al75     Al       0.77760    0.90470    0.36160    1.000
    P73      P        0.71890    0.91120    0.37040    1.000
    P74      P        0.77920    0.86530    0.31620    1.000
    P75      P        0.81170    0.95400    0.35170    1.000
    O337     O        0.74960    0.91910    0.37390    1.000
    O338     O        0.71300    0.88590    0.38730    1.000
    O339     O        0.71870    0.89830    0.34090    1.000
    O340     O        0.70120    0.93410    0.37120    1.000
    O341     O        0.74680    0.86490    0.30930    1.000
    O342     O        0.80040    0.86540    0.29710    1.000
    O343     O        0.78190    0.84270    0.33650    1.000
    O344     O        0.71410    0.97170    0.33680    1.000
    O345     O        0.83220    0.94460    0.33040    1.000
    O346     O        0.67000    0.97340    0.38200    1.000
    O347     O        0.78290    0.89350    0.32950    1.000
    O348     O        0.80040    0.92660    0.36610    1.000
    O349     O        0.78830    0.96950    0.34130    1.000
    O350     O        0.82170    0.97210    0.37250    1.000
    Al76     Al       0.71950    0.36620    0.82990    1.000
    Al77     Al       0.68880    0.46160    0.85580    1.000
    Al78     Al       0.77760    0.40470    0.86160    1.000
    P76      P        0.71890    0.41120    0.87040    1.000
    P77      P        0.77920    0.36530    0.81620    1.000
    P78      P        0.81170    0.45400    0.85170    1.000
    O351     O        0.74960    0.41910    0.87390    1.000
    O352     O        0.71300    0.38590    0.88730    1.000
    O353     O        0.71870    0.39830    0.84090    1.000
    O354     O        0.70120    0.43410    0.87120    1.000
    O355     O        0.74680    0.36490    0.80930    1.000
    O356     O        0.80040    0.36540    0.79710    1.000
    O357     O        0.78190    0.34270    0.83650    1.000
    O358     O        0.71410    0.47170    0.83680    1.000
    O359     O        0.83220    0.44460    0.83040    1.000
    O360     O        0.67000    0.47340    0.88200    1.000
    O361     O        0.78290    0.39350    0.82950    1.000
    O362     O        0.80040    0.42660    0.86610    1.000
    O363     O        0.78830    0.46950    0.84130    1.000
    O364     O        0.82170    0.47210    0.87250    1.000
    Al79     Al       0.21950    0.86620    0.82990    1.000
    Al80     Al       0.18880    0.96160    0.85580    1.000
    Al81     Al       0.27760    0.90470    0.86160    1.000
    P79      P        0.21890    0.91120    0.87040    1.000
    P80      P        0.27920    0.86530    0.81620    1.000
    P81      P        0.31170    0.95400    0.85170    1.000
    O365     O        0.24960    0.91910    0.87390    1.000
    O366     O        0.21300    0.88590    0.88730    1.000
    O367     O        0.21870    0.89830    0.84090    1.000
    O368     O        0.20120    0.93410    0.87120    1.000
    O369     O        0.24680    0.86490    0.80930    1.000
    O370     O        0.30040    0.86540    0.79710    1.000
    O371     O        0.28190    0.84270    0.83650    1.000
    O372     O        0.21410    0.97170    0.83680    1.000
    O373     O        0.33220    0.94460    0.83040    1.000
    O374     O        0.17000    0.97340    0.88200    1.000
    O375     O        0.28290    0.89350    0.82950    1.000
    O376     O        0.30040    0.92660    0.86610    1.000
    O377     O        0.28830    0.96950    0.84130    1.000
    O378     O        0.32170    0.97210    0.87250    1.000
    Al82     Al       0.21950    0.36620    0.32990    1.000
    Al83     Al       0.18880    0.46160    0.35580    1.000
    Al84     Al       0.27760    0.40470    0.36160    1.000
    P82      P        0.21890    0.41120    0.37040    1.000
    P83      P        0.27920    0.36530    0.31620    1.000
    P84      P        0.31170    0.45400    0.35170    1.000
    O379     O        0.24960    0.41910    0.37390    1.000
    O380     O        0.21300    0.38590    0.38730    1.000
    O381     O        0.21870    0.39830    0.34090    1.000
    O382     O        0.20120    0.43410    0.37120    1.000
    O383     O        0.24680    0.36490    0.30930    1.000
    O384     O        0.30040    0.36540    0.29710    1.000
    O385     O        0.28190    0.34270    0.33650    1.000
    O386     O        0.21410    0.47170    0.33680    1.000
    O387     O        0.33220    0.44460    0.33040    1.000
    O388     O        0.17000    0.47340    0.38200    1.000
    O389     O        0.28290    0.39350    0.32950    1.000
    O390     O        0.30040    0.42660    0.36610    1.000
    O391     O        0.28830    0.46950    0.34130    1.000
    O392     O        0.32170    0.47210    0.37250    1.000
    Al85     Al       0.71950    0.13380    0.67010    1.000
    Al86     Al       0.68880    0.03840    0.64420    1.000
    Al87     Al       0.77760    0.09530    0.63840    1.000
    P85      P        0.71890    0.08880    0.62960    1.000
    P86      P        0.77920    0.13470    0.68380    1.000
    P87      P        0.81170    0.04600    0.64830    1.000
    O393     O        0.74960    0.08090    0.62610    1.000
    O394     O        0.71300    0.11410    0.61270    1.000
    O395     O        0.71870    0.10170    0.65910    1.000
    O396     O        0.70120    0.06590    0.62880    1.000
    O397     O        0.74680    0.13510    0.69070    1.000
    O398     O        0.80040    0.13460    0.70290    1.000
    O399     O        0.78190    0.15730    0.66350    1.000
    O400     O        0.71410    0.02830    0.66320    1.000
    O401     O        0.83220    0.05540    0.66960    1.000
    O402     O        0.67000    0.02660    0.61800    1.000
    O403     O        0.78290    0.10650    0.67050    1.000
    O404     O        0.80040    0.07340    0.63390    1.000
    O405     O        0.78830    0.03050    0.65870    1.000
    O406     O        0.82170    0.02790    0.62750    1.000
    Al88     Al       0.71950    0.63380    0.17010    1.000
    Al89     Al       0.68880    0.53840    0.14420    1.000
    Al90     Al       0.77760    0.59530    0.13840    1.000
    P88      P        0.71890    0.58880    0.12960    1.000
    P89      P        0.77920    0.63470    0.18380    1.000
    P90      P        0.81170    0.54600    0.14830    1.000
    O407     O        0.74960    0.58090    0.12610    1.000
    O408     O        0.71300    0.61410    0.11270    1.000
    O409     O        0.71870    0.60170    0.15910    1.000
    O410     O        0.70120    0.56590    0.12880    1.000
    O411     O        0.74680    0.63510    0.19070    1.000
    O412     O        0.80040    0.63460    0.20290    1.000
    O413     O        0.78190    0.65730    0.16350    1.000
    O414     O        0.71410    0.52830    0.16320    1.000
    O415     O        0.83220    0.55540    0.16960    1.000
    O416     O        0.67000    0.52660    0.11800    1.000
    O417     O        0.78290    0.60650    0.17050    1.000
    O418     O        0.80040    0.57340    0.13390    1.000
    O419     O        0.78830    0.53050    0.15870    1.000
    O420     O        0.82170    0.52790    0.12750    1.000
    Al91     Al       0.21950    0.13380    0.17010    1.000
    Al92     Al       0.18880    0.03840    0.14420    1.000
    Al93     Al       0.27760    0.09530    0.13840    1.000
    P91      P        0.21890    0.08880    0.12960    1.000
    P92      P        0.27920    0.13470    0.18380    1.000
    P93      P        0.31170    0.04600    0.14830    1.000
    O421     O        0.24960    0.08090    0.12610    1.000
    O422     O        0.21300    0.11410    0.11270    1.000
    O423     O        0.21870    0.10170    0.15910    1.000
    O424     O        0.20120    0.06590    0.12880    1.000
    O425     O        0.24680    0.13510    0.19070    1.000
    O426     O        0.30040    0.13460    0.20290    1.000
    O427     O        0.28190    0.15730    0.16350    1.000
    O428     O        0.21410    0.02830    0.16320    1.000
    O429     O        0.33220    0.05540    0.16960    1.000
    O430     O        0.17000    0.02660    0.11800    1.000
    O431     O        0.28290    0.10650    0.17050    1.000
    O432     O        0.30040    0.07340    0.13390    1.000
    O433     O        0.28830    0.03050    0.15870    1.000
    O434     O        0.32170    0.02790    0.12750    1.000
    Al94     Al       0.21950    0.63380    0.67010    1.000
    Al95     Al       0.18880    0.53840    0.64420    1.000
    Al96     Al       0.27760    0.59530    0.63840    1.000
    P94      P        0.21890    0.58880    0.62960    1.000
    P95      P        0.27920    0.63470    0.68380    1.000
    P96      P        0.31170    0.54600    0.64830    1.000
    O435     O        0.24960    0.58090    0.62610    1.000
    O436     O        0.21300    0.61410    0.61270    1.000
    O437     O        0.21870    0.60170    0.65910    1.000
    O438     O        0.20120    0.56590    0.62880    1.000
    O439     O        0.24680    0.63510    0.69070    1.000
    O440     O        0.30040    0.63460    0.70290    1.000
    O441     O        0.28190    0.65730    0.66350    1.000
    O442     O        0.21410    0.52830    0.66320    1.000
    O443     O        0.33220    0.55540    0.66960    1.000
    O444     O        0.17000    0.52660    0.61800    1.000
    O445     O        0.28290    0.60650    0.67050    1.000
    O446     O        0.30040    0.57340    0.63390    1.000
    O447     O        0.28830    0.53050    0.65870    1.000
    O448     O        0.32170    0.52790    0.62750    1.000
    Al97     Al       0.32990    0.28050    0.13380    1.000
    Al98     Al       0.35580    0.31120    0.03840    1.000
    Al99     Al       0.36160    0.22240    0.09530    1.000
    P97      P        0.37040    0.28110    0.08880    1.000
    P98      P        0.31620    0.22080    0.13470    1.000
    P99      P        0.35170    0.18830    0.04600    1.000
    O449     O        0.37390    0.25040    0.08090    1.000
    O450     O        0.38730    0.28700    0.11410    1.000
    O451     O        0.34090    0.28130    0.10170    1.000
    O452     O        0.37120    0.29880    0.06590    1.000
    O453     O        0.30930    0.25320    0.13510    1.000
    O454     O        0.29710    0.19960    0.13460    1.000
    O455     O        0.33650    0.21810    0.15730    1.000
    O456     O        0.33680    0.28590    0.02830    1.000
    O457     O        0.33040    0.16780    0.05540    1.000
    O458     O        0.38200    0.33000    0.02660    1.000
    O459     O        0.32950    0.21710    0.10650    1.000
    O460     O        0.36610    0.19960    0.07340    1.000
    O461     O        0.34130    0.21170    0.03050    1.000
    O462     O        0.37250    0.17830    0.02790    1.000
    Al100    Al       0.32990    0.78050    0.63380    1.000
    Al101    Al       0.35580    0.81120    0.53840    1.000
    Al102    Al       0.36160    0.72240    0.59530    1.000
    P100     P        0.37040    0.78110    0.58880    1.000
    P101     P        0.31620    0.72080    0.63470    1.000
    P102     P        0.35170    0.68830    0.54600    1.000
    O463     O        0.37390    0.75040    0.58090    1.000
    O464     O        0.38730    0.78700    0.61410    1.000
    O465     O        0.34090    0.78130    0.60170    1.000
    O466     O        0.37120    0.79880    0.56590    1.000
    O467     O        0.30930    0.75320    0.63510    1.000
    O468     O        0.29710    0.69960    0.63460    1.000
    O469     O        0.33650    0.71810    0.65730    1.000
    O470     O        0.33680    0.78590    0.52830    1.000
    O471     O        0.33040    0.66780    0.55540    1.000
    O472     O        0.38200    0.83000    0.52660    1.000
    O473     O        0.32950    0.71710    0.60650    1.000
    O474     O        0.36610    0.69960    0.57340    1.000
    O475     O        0.34130    0.71170    0.53050    1.000
    O476     O        0.37250    0.67830    0.52790    1.000
    Al103    Al       0.82990    0.28050    0.63380    1.000
    Al104    Al       0.85580    0.31120    0.53840    1.000
    Al105    Al       0.86160    0.22240    0.59530    1.000
    P103     P        0.87040    0.28110    0.58880    1.000
    P104     P        0.81620    0.22080    0.63470    1.000
    P105     P        0.85170    0.18830    0.54600    1.000
    O477     O        0.87390    0.25040    0.58090    1.000
    O478     O        0.88730    0.28700    0.61410    1.000
    O479     O        0.84090    0.28130    0.60170    1.000
    O480     O        0.87120    0.29880    0.56590    1.000
    O481     O        0.80930    0.25320    0.63510    1.000
    O482     O        0.79710    0.19960    0.63460    1.000
    O483     O        0.83650    0.21810    0.65730    1.000
    O484     O        0.83680    0.28590    0.52830    1.000
    O485     O        0.83040    0.16780    0.55540    1.000
    O486     O        0.88200    0.33000    0.52660    1.000
    O487     O        0.82950    0.21710    0.60650    1.000
    O488     O        0.86610    0.19960    0.57340    1.000
    O489     O        0.84130    0.21170    0.53050    1.000
    O490     O        0.87250    0.17830    0.52790    1.000
    Al106    Al       0.82990    0.78050    0.13380    1.000
    Al107    Al       0.85580    0.81120    0.03840    1.000
    Al108    Al       0.86160    0.72240    0.09530    1.000
    P106     P        0.87040    0.78110    0.08880    1.000
    P107     P        0.81620    0.72080    0.13470    1.000
    P108     P        0.85170    0.68830    0.04600    1.000
    O491     O        0.87390    0.75040    0.08090    1.000
    O492     O        0.88730    0.78700    0.11410    1.000
    O493     O        0.84090    0.78130    0.10170    1.000
    O494     O        0.87120    0.79880    0.06590    1.000
    O495     O        0.80930    0.75320    0.13510    1.000
    O496     O        0.79710    0.69960    0.13460    1.000
    O497     O        0.83650    0.71810    0.15730    1.000
    O498     O        0.83680    0.78590    0.02830    1.000
    O499     O        0.83040    0.66780    0.05540    1.000
    O500     O        0.88200    0.83000    0.02660    1.000
    O501     O        0.82950    0.71710    0.10650    1.000
    O502     O        0.86610    0.69960    0.07340    1.000
    O503     O        0.84130    0.71170    0.03050    1.000
    O504     O        0.87250    0.67830    0.02790    1.000
    Al109    Al       0.67010    0.28050    0.86620    1.000
    Al110    Al       0.64420    0.31120    0.96160    1.000
    Al111    Al       0.63840    0.22240    0.90470    1.000
    P109     P        0.62960    0.28110    0.91120    1.000
    P110     P        0.68380    0.22080    0.86530    1.000
    P111     P        0.64830    0.18830    0.95400    1.000
    O505     O        0.62610    0.25040    0.91910    1.000
    O506     O        0.61270    0.28700    0.88590    1.000
    O507     O        0.65910    0.28130    0.89830    1.000
    O508     O        0.62880    0.29880    0.93410    1.000
    O509     O        0.69070    0.25320    0.86490    1.000
    O510     O        0.70290    0.19960    0.86540    1.000
    O511     O        0.66350    0.21810    0.84270    1.000
    O512     O        0.66320    0.28590    0.97170    1.000
    O513     O        0.66960    0.16780    0.94460    1.000
    O514     O        0.61800    0.33000    0.97340    1.000
    O515     O        0.67050    0.21710    0.89350    1.000
    O516     O        0.63390    0.19960    0.92660    1.000
    O517     O        0.65870    0.21170    0.96950    1.000
    O518     O        0.62750    0.17830    0.97210    1.000
    Al112    Al       0.67010    0.78050    0.36620    1.000
    Al113    Al       0.64420    0.81120    0.46160    1.000
    Al114    Al       0.63840    0.72240    0.40470    1.000
    P112     P        0.62960    0.78110    0.41120    1.000
    P113     P        0.68380    0.72080    0.36530    1.000
    P114     P        0.64830    0.68830    0.45400    1.000
    O519     O        0.62610    0.75040    0.41910    1.000
    O520     O        0.61270    0.78700    0.38590    1.000
    O521     O        0.65910    0.78130    0.39830    1.000
    O522     O        0.62880    0.79880    0.43410    1.000
    O523     O        0.69070    0.75320    0.36490    1.000
    O524     O        0.70290    0.69960    0.36540    1.000
    O525     O        0.66350    0.71810    0.34270    1.000
    O526     O        0.66320    0.78590    0.47170    1.000
    O527     O        0.66960    0.66780    0.44460    1.000
    O528     O        0.61800    0.83000    0.47340    1.000
    O529     O        0.67050    0.71710    0.39350    1.000
    O530     O        0.63390    0.69960    0.42660    1.000
    O531     O        0.65870    0.71170    0.46950    1.000
    O532     O        0.62750    0.67830    0.47210    1.000
    Al115    Al       0.17010    0.28050    0.36620    1.000
    Al116    Al       0.14420    0.31120    0.46160    1.000
    Al117    Al       0.13840    0.22240    0.40470    1.000
    P115     P        0.12960    0.28110    0.41120    1.000
    P116     P        0.18380    0.22080    0.36530    1.000
    P117     P        0.14830    0.18830    0.45400    1.000
    O533     O        0.12610    0.25040    0.41910    1.000
    O534     O        0.11270    0.28700    0.38590    1.000
    O535     O        0.15910    0.28130    0.39830    1.000
    O536     O        0.12880    0.29880    0.43410    1.000
    O537     O        0.19070    0.25320    0.36490    1.000
    O538     O        0.20290    0.19960    0.36540    1.000
    O539     O        0.16350    0.21810    0.34270    1.000
    O540     O        0.16320    0.28590    0.47170    1.000
    O541     O        0.16960    0.16780    0.44460    1.000
    O542     O        0.11800    0.33000    0.47340    1.000
    O543     O        0.17050    0.21710    0.39350    1.000
    O544     O        0.13390    0.19960    0.42660    1.000
    O545     O        0.15870    0.21170    0.46950    1.000
    O546     O        0.12750    0.17830    0.47210    1.000
    Al118    Al       0.17010    0.78050    0.86620    1.000
    Al119    Al       0.14420    0.81120    0.96160    1.000
    Al120    Al       0.13840    0.72240    0.90470    1.000
    P118     P        0.12960    0.78110    0.91120    1.000
    P119     P        0.18380    0.72080    0.86530    1.000
    P120     P        0.14830    0.68830    0.95400    1.000
    O547     O        0.12610    0.75040    0.91910    1.000
    O548     O        0.11270    0.78700    0.88590    1.000
    O549     O        0.15910    0.78130    0.89830    1.000
    O550     O        0.12880    0.79880    0.93410    1.000
    O551     O        0.19070    0.75320    0.86490    1.000
    O552     O        0.20290    0.69960    0.86540    1.000
    O553     O        0.16350    0.71810    0.84270    1.000
    O554     O        0.16320    0.78590    0.97170    1.000
    O555     O        0.16960    0.66780    0.94460    1.000
    O556     O        0.11800    0.83000    0.97340    1.000
    O557     O        0.17050    0.71710    0.89350    1.000
    O558     O        0.13390    0.69960    0.92660    1.000
    O559     O        0.15870    0.71170    0.96950    1.000
    O560     O        0.12750    0.67830    0.97210    1.000
    Al121    Al       0.32990    0.71950    0.86620    1.000
    Al122    Al       0.35580    0.68880    0.96160    1.000
    Al123    Al       0.36160    0.77760    0.90470    1.000
    P121     P        0.37040    0.71890    0.91120    1.000
    P122     P        0.31620    0.77920    0.86530    1.000
    P123     P        0.35170    0.81170    0.95400    1.000
    O561     O        0.37390    0.74960    0.91910    1.000
    O562     O        0.38730    0.71300    0.88590    1.000
    O563     O        0.34090    0.71870    0.89830    1.000
    O564     O        0.37120    0.70120    0.93410    1.000
    O565     O        0.30930    0.74680    0.86490    1.000
    O566     O        0.29710    0.80040    0.86540    1.000
    O567     O        0.33650    0.78190    0.84270    1.000
    O568     O        0.33680    0.71410    0.97170    1.000
    O569     O        0.33040    0.83220    0.94460    1.000
    O570     O        0.38200    0.67000    0.97340    1.000
    O571     O        0.32950    0.78290    0.89350    1.000
    O572     O        0.36610    0.80040    0.92660    1.000
    O573     O        0.34130    0.78830    0.96950    1.000
    O574     O        0.37250    0.82170    0.97210    1.000
    Al124    Al       0.32990    0.21950    0.36620    1.000
    Al125    Al       0.35580    0.18880    0.46160    1.000
    Al126    Al       0.36160    0.27760    0.40470    1.000
    P124     P        0.37040    0.21890    0.41120    1.000
    P125     P        0.31620    0.27920    0.36530    1.000
    P126     P        0.35170    0.31170    0.45400    1.000
    O575     O        0.37390    0.24960    0.41910    1.000
    O576     O        0.38730    0.21300    0.38590    1.000
    O577     O        0.34090    0.21870    0.39830    1.000
    O578     O        0.37120    0.20120    0.43410    1.000
    O579     O        0.30930    0.24680    0.36490    1.000
    O580     O        0.29710    0.30040    0.36540    1.000
    O581     O        0.33650    0.28190    0.34270    1.000
    O582     O        0.33680    0.21410    0.47170    1.000
    O583     O        0.33040    0.33220    0.44460    1.000
    O584     O        0.38200    0.17000    0.47340    1.000
    O585     O        0.32950    0.28290    0.39350    1.000
    O586     O        0.36610    0.30040    0.42660    1.000
    O587     O        0.34130    0.28830    0.46950    1.000
    O588     O        0.37250    0.32170    0.47210    1.000
    Al127    Al       0.82990    0.71950    0.36620    1.000
    Al128    Al       0.85580    0.68880    0.46160    1.000
    Al129    Al       0.86160    0.77760    0.40470    1.000
    P127     P        0.87040    0.71890    0.41120    1.000
    P128     P        0.81620    0.77920    0.36530    1.000
    P129     P        0.85170    0.81170    0.45400    1.000
    O589     O        0.87390    0.74960    0.41910    1.000
    O590     O        0.88730    0.71300    0.38590    1.000
    O591     O        0.84090    0.71870    0.39830    1.000
    O592     O        0.87120    0.70120    0.43410    1.000
    O593     O        0.80930    0.74680    0.36490    1.000
    O594     O        0.79710    0.80040    0.36540    1.000
    O595     O        0.83650    0.78190    0.34270    1.000
    O596     O        0.83680    0.71410    0.47170    1.000
    O597     O        0.83040    0.83220    0.44460    1.000
    O598     O        0.88200    0.67000    0.47340    1.000
    O599     O        0.82950    0.78290    0.39350    1.000
    O600     O        0.86610    0.80040    0.42660    1.000
    O601     O        0.84130    0.78830    0.46950    1.000
    O602     O        0.87250    0.82170    0.47210    1.000
    Al130    Al       0.82990    0.21950    0.86620    1.000
    Al131    Al       0.85580    0.18880    0.96160    1.000
    Al132    Al       0.86160    0.27760    0.90470    1.000
    P130     P        0.87040    0.21890    0.91120    1.000
    P131     P        0.81620    0.27920    0.86530    1.000
    P132     P        0.85170    0.31170    0.95400    1.000
    O603     O        0.87390    0.24960    0.91910    1.000
    O604     O        0.88730    0.21300    0.88590    1.000
    O605     O        0.84090    0.21870    0.89830    1.000
    O606     O        0.87120    0.20120    0.93410    1.000
    O607     O        0.80930    0.24680    0.86490    1.000
    O608     O        0.79710    0.30040    0.86540    1.000
    O609     O        0.83650    0.28190    0.84270    1.000
    O610     O        0.83680    0.21410    0.97170    1.000
    O611     O        0.83040    0.33220    0.94460    1.000
    O612     O        0.88200    0.17000    0.97340    1.000
    O613     O        0.82950    0.28290    0.89350    1.000
    O614     O        0.86610    0.30040    0.92660    1.000
    O615     O        0.84130    0.28830    0.96950    1.000
    O616     O        0.87250    0.32170    0.97210    1.000
    Al133    Al       0.67010    0.71950    0.13380    1.000
    Al134    Al       0.64420    0.68880    0.03840    1.000
    Al135    Al       0.63840    0.77760    0.09530    1.000
    P133     P        0.62960    0.71890    0.08880    1.000
    P134     P        0.68380    0.77920    0.13470    1.000
    P135     P        0.64830    0.81170    0.04600    1.000
    O617     O        0.62610    0.74960    0.08090    1.000
    O618     O        0.61270    0.71300    0.11410    1.000
    O619     O        0.65910    0.71870    0.10170    1.000
    O620     O        0.62880    0.70120    0.06590    1.000
    O621     O        0.69070    0.74680    0.13510    1.000
    O622     O        0.70290    0.80040    0.13460    1.000
    O623     O        0.66350    0.78190    0.15730    1.000
    O624     O        0.66320    0.71410    0.02830    1.000
    O625     O        0.66960    0.83220    0.05540    1.000
    O626     O        0.61800    0.67000    0.02660    1.000
    O627     O        0.67050    0.78290    0.10650    1.000
    O628     O        0.63390    0.80040    0.07340    1.000
    O629     O        0.65870    0.78830    0.03050    1.000
    O630     O        0.62750    0.82170    0.02790    1.000
    Al136    Al       0.67010    0.21950    0.63380    1.000
    Al137    Al       0.64420    0.18880    0.53840    1.000
    Al138    Al       0.63840    0.27760    0.59530    1.000
    P136     P        0.62960    0.21890    0.58880    1.000
    P137     P        0.68380    0.27920    0.63470    1.000
    P138     P        0.64830    0.31170    0.54600    1.000
    O631     O        0.62610    0.24960    0.58090    1.000
    O632     O        0.61270    0.21300    0.61410    1.000
    O633     O        0.65910    0.21870    0.60170    1.000
    O634     O        0.62880    0.20120    0.56590    1.000
    O635     O        0.69070    0.24680    0.63510    1.000
    O636     O        0.70290    0.30040    0.63460    1.000
    O637     O        0.66350    0.28190    0.65730    1.000
    O638     O        0.66320    0.21410    0.52830    1.000
    O639     O        0.66960    0.33220    0.55540    1.000
    O640     O        0.61800    0.17000    0.52660    1.000
    O641     O        0.67050    0.28290    0.60650    1.000
    O642     O        0.63390    0.30040    0.57340    1.000
    O643     O        0.65870    0.28830    0.53050    1.000
    O644     O        0.62750    0.32170    0.52790    1.000
    Al139    Al       0.17010    0.71950    0.63380    1.000
    Al140    Al       0.14420    0.68880    0.53840    1.000
    Al141    Al       0.13840    0.77760    0.59530    1.000
    P139     P        0.12960    0.71890    0.58880    1.000
    P140     P        0.18380    0.77920    0.63470    1.000
    P141     P        0.14830    0.81170    0.54600    1.000
    O645     O        0.12610    0.74960    0.58090    1.000
    O646     O        0.11270    0.71300    0.61410    1.000
    O647     O        0.15910    0.71870    0.60170    1.000
    O648     O        0.12880    0.70120    0.56590    1.000
    O649     O        0.19070    0.74680    0.63510    1.000
    O650     O        0.20290    0.80040    0.63460    1.000
    O651     O        0.16350    0.78190    0.65730    1.000
    O652     O        0.16320    0.71410    0.52830    1.000
    O653     O        0.16960    0.83220    0.55540    1.000
    O654     O        0.11800    0.67000    0.52660    1.000
    O655     O        0.17050    0.78290    0.60650    1.000
    O656     O        0.13390    0.80040    0.57340    1.000
    O657     O        0.15870    0.78830    0.53050    1.000
    O658     O        0.12750    0.82170    0.52790    1.000
    Al142    Al       0.17010    0.21950    0.13380    1.000
    Al143    Al       0.14420    0.18880    0.03840    1.000
    Al144    Al       0.13840    0.27760    0.09530    1.000
    P142     P        0.12960    0.21890    0.08880    1.000
    P143     P        0.18380    0.27920    0.13470    1.000
    P144     P        0.14830    0.31170    0.04600    1.000
    O659     O        0.12610    0.24960    0.08090    1.000
    O660     O        0.11270    0.21300    0.11410    1.000
    O661     O        0.15910    0.21870    0.10170    1.000
    O662     O        0.12880    0.20120    0.06590    1.000
    O663     O        0.19070    0.24680    0.13510    1.000
    O664     O        0.20290    0.30040    0.13460    1.000
    O665     O        0.16350    0.28190    0.15730    1.000
    O666     O        0.16320    0.21410    0.02830    1.000
    O667     O        0.16960    0.33220    0.05540    1.000
    O668     O        0.11800    0.17000    0.02660    1.000
    O669     O        0.17050    0.28290    0.10650    1.000
    O670     O        0.13390    0.30040    0.07340    1.000
    O671     O        0.15870    0.28830    0.03050    1.000
    O672     O        0.12750    0.32170    0.02790    1.000
    Al145    Al       0.82990    0.63380    0.21950    1.000
    Al146    Al       0.85580    0.53840    0.18880    1.000
    Al147    Al       0.86160    0.59530    0.27760    1.000
    P145     P        0.87040    0.58880    0.21890    1.000
    P146     P        0.81620    0.63470    0.27920    1.000
    P147     P        0.85170    0.54600    0.31170    1.000
    O673     O        0.87390    0.58090    0.24960    1.000
    O674     O        0.88730    0.61410    0.21300    1.000
    O675     O        0.84090    0.60170    0.21870    1.000
    O676     O        0.87120    0.56590    0.20120    1.000
    O677     O        0.80930    0.63510    0.24680    1.000
    O678     O        0.79710    0.63460    0.30040    1.000
    O679     O        0.83650    0.65730    0.28190    1.000
    O680     O        0.83680    0.52830    0.21410    1.000
    O681     O        0.83040    0.55540    0.33220    1.000
    O682     O        0.88200    0.52660    0.17000    1.000
    O683     O        0.82950    0.60650    0.28290    1.000
    O684     O        0.86610    0.57340    0.30040    1.000
    O685     O        0.84130    0.53050    0.28830    1.000
    O686     O        0.87250    0.52790    0.32170    1.000
    Al148    Al       0.82990    0.13380    0.71950    1.000
    Al149    Al       0.85580    0.03840    0.68880    1.000
    Al150    Al       0.86160    0.09530    0.77760    1.000
    P148     P        0.87040    0.08880    0.71890    1.000
    P149     P        0.81620    0.13470    0.77920    1.000
    P150     P        0.85170    0.04600    0.81170    1.000
    O687     O        0.87390    0.08090    0.74960    1.000
    O688     O        0.88730    0.11410    0.71300    1.000
    O689     O        0.84090    0.10170    0.71870    1.000
    O690     O        0.87120    0.06590    0.70120    1.000
    O691     O        0.80930    0.13510    0.74680    1.000
    O692     O        0.79710    0.13460    0.80040    1.000
    O693     O        0.83650    0.15730    0.78190    1.000
    O694     O        0.83680    0.02830    0.71410    1.000
    O695     O        0.83040    0.05540    0.83220    1.000
    O696     O        0.88200    0.02660    0.67000    1.000
    O697     O        0.82950    0.10650    0.78290    1.000
    O698     O        0.86610    0.07340    0.80040    1.000
    O699     O        0.84130    0.03050    0.78830    1.000
    O700     O        0.87250    0.02790    0.82170    1.000
    Al151    Al       0.32990    0.63380    0.71950    1.000
    Al152    Al       0.35580    0.53840    0.68880    1.000
    Al153    Al       0.36160    0.59530    0.77760    1.000
    P151     P        0.37040    0.58880    0.71890    1.000
    P152     P        0.31620    0.63470    0.77920    1.000
    P153     P        0.35170    0.54600    0.81170    1.000
    O701     O        0.37390    0.58090    0.74960    1.000
    O702     O        0.38730    0.61410    0.71300    1.000
    O703     O        0.34090    0.60170    0.71870    1.000
    O704     O        0.37120    0.56590    0.70120    1.000
    O705     O        0.30930    0.63510    0.74680    1.000
    O706     O        0.29710    0.63460    0.80040    1.000
    O707     O        0.33650    0.65730    0.78190    1.000
    O708     O        0.33680    0.52830    0.71410    1.000
    O709     O        0.33040    0.55540    0.83220    1.000
    O710     O        0.38200    0.52660    0.67000    1.000
    O711     O        0.32950    0.60650    0.78290    1.000
    O712     O        0.36610    0.57340    0.80040    1.000
    O713     O        0.34130    0.53050    0.78830    1.000
    O714     O        0.37250    0.52790    0.82170    1.000
    Al154    Al       0.32990    0.13380    0.21950    1.000
    Al155    Al       0.35580    0.03840    0.18880    1.000
    Al156    Al       0.36160    0.09530    0.27760    1.000
    P154     P        0.37040    0.08880    0.21890    1.000
    P155     P        0.31620    0.13470    0.27920    1.000
    P156     P        0.35170    0.04600    0.31170    1.000
    O715     O        0.37390    0.08090    0.24960    1.000
    O716     O        0.38730    0.11410    0.21300    1.000
    O717     O        0.34090    0.10170    0.21870    1.000
    O718     O        0.37120    0.06590    0.20120    1.000
    O719     O        0.30930    0.13510    0.24680    1.000
    O720     O        0.29710    0.13460    0.30040    1.000
    O721     O        0.33650    0.15730    0.28190    1.000
    O722     O        0.33680    0.02830    0.21410    1.000
    O723     O        0.33040    0.05540    0.33220    1.000
    O724     O        0.38200    0.02660    0.17000    1.000
    O725     O        0.32950    0.10650    0.28290    1.000
    O726     O        0.36610    0.07340    0.30040    1.000
    O727     O        0.34130    0.03050    0.28830    1.000
    O728     O        0.37250    0.02790    0.32170    1.000
    Al157    Al       0.17010    0.36620    0.21950    1.000
    Al158    Al       0.14420    0.46160    0.18880    1.000
    Al159    Al       0.13840    0.40470    0.27760    1.000
    P157     P        0.12960    0.41120    0.21890    1.000
    P158     P        0.18380    0.36530    0.27920    1.000
    P159     P        0.14830    0.45400    0.31170    1.000
    O729     O        0.12610    0.41910    0.24960    1.000
    O730     O        0.11270    0.38590    0.21300    1.000
    O731     O        0.15910    0.39830    0.21870    1.000
    O732     O        0.12880    0.43410    0.20120    1.000
    O733     O        0.19070    0.36490    0.24680    1.000
    O734     O        0.20290    0.36540    0.30040    1.000
    O735     O        0.16350    0.34270    0.28190    1.000
    O736     O        0.16320    0.47170    0.21410    1.000
    O737     O        0.16960    0.44460    0.33220    1.000
    O738     O        0.11800    0.47340    0.17000    1.000
    O739     O        0.17050    0.39350    0.28290    1.000
    O740     O        0.13390    0.42660    0.30040    1.000
    O741     O        0.15870    0.46950    0.28830    1.000
    O742     O        0.12750    0.47210    0.32170    1.000
    Al160    Al       0.17010    0.86620    0.71950    1.000
    Al161    Al       0.14420    0.96160    0.68880    1.000
    Al162    Al       0.13840    0.90470    0.77760    1.000
    P160     P        0.12960    0.91120    0.71890    1.000
    P161     P        0.18380    0.86530    0.77920    1.000
    P162     P        0.14830    0.95400    0.81170    1.000
    O743     O        0.12610    0.91910    0.74960    1.000
    O744     O        0.11270    0.88590    0.71300    1.000
    O745     O        0.15910    0.89830    0.71870    1.000
    O746     O        0.12880    0.93410    0.70120    1.000
    O747     O        0.19070    0.86490    0.74680    1.000
    O748     O        0.20290    0.86540    0.80040    1.000
    O749     O        0.16350    0.84270    0.78190    1.000
    O750     O        0.16320    0.97170    0.71410    1.000
    O751     O        0.16960    0.94460    0.83220    1.000
    O752     O        0.11800    0.97340    0.67000    1.000
    O753     O        0.17050    0.89350    0.78290    1.000
    O754     O        0.13390    0.92660    0.80040    1.000
    O755     O        0.15870    0.96950    0.78830    1.000
    O756     O        0.12750    0.97210    0.82170    1.000
    Al163    Al       0.67010    0.36620    0.71950    1.000
    Al164    Al       0.64420    0.46160    0.68880    1.000
    Al165    Al       0.63840    0.40470    0.77760    1.000
    P163     P        0.62960    0.41120    0.71890    1.000
    P164     P        0.68380    0.36530    0.77920    1.000
    P165     P        0.64830    0.45400    0.81170    1.000
    O757     O        0.62610    0.41910    0.74960    1.000
    O758     O        0.61270    0.38590    0.71300    1.000
    O759     O        0.65910    0.39830    0.71870    1.000
    O760     O        0.62880    0.43410    0.70120    1.000
    O761     O        0.69070    0.36490    0.74680    1.000
    O762     O        0.70290    0.36540    0.80040    1.000
    O763     O        0.66350    0.34270    0.78190    1.000
    O764     O        0.66320    0.47170    0.71410    1.000
    O765     O        0.66960    0.44460    0.83220    1.000
    O766     O        0.61800    0.47340    0.67000    1.000
    O767     O        0.67050    0.39350    0.78290    1.000
    O768     O        0.63390    0.42660    0.80040    1.000
    O769     O        0.65870    0.46950    0.78830    1.000
    O770     O        0.62750    0.47210    0.82170    1.000
    Al166    Al       0.67010    0.86620    0.21950    1.000
    Al167    Al       0.64420    0.96160    0.18880    1.000
    Al168    Al       0.63840    0.90470    0.27760    1.000
    P166     P        0.62960    0.91120    0.21890    1.000
    P167     P        0.68380    0.86530    0.27920    1.000
    P168     P        0.64830    0.95400    0.31170    1.000
    O771     O        0.62610    0.91910    0.24960    1.000
    O772     O        0.61270    0.88590    0.21300    1.000
    O773     O        0.65910    0.89830    0.21870    1.000
    O774     O        0.62880    0.93410    0.20120    1.000
    O775     O        0.69070    0.86490    0.24680    1.000
    O776     O        0.70290    0.86540    0.30040    1.000
    O777     O        0.66350    0.84270    0.28190    1.000
    O778     O        0.66320    0.97170    0.21410    1.000
    O779     O        0.66960    0.94460    0.33220    1.000
    O780     O        0.61800    0.97340    0.17000    1.000
    O781     O        0.67050    0.89350    0.28290    1.000
    O782     O        0.63390    0.92660    0.30040    1.000
    O783     O        0.65870    0.96950    0.28830    1.000
    O784     O        0.62750    0.97210    0.32170    1.000
    Al169    Al       0.82990    0.36620    0.78050    1.000
    Al170    Al       0.85580    0.46160    0.81120    1.000
    Al171    Al       0.86160    0.40470    0.72240    1.000
    P169     P        0.87040    0.41120    0.78110    1.000
    P170     P        0.81620    0.36530    0.72080    1.000
    P171     P        0.85170    0.45400    0.68830    1.000
    O785     O        0.87390    0.41910    0.75040    1.000
    O786     O        0.88730    0.38590    0.78700    1.000
    O787     O        0.84090    0.39830    0.78130    1.000
    O788     O        0.87120    0.43410    0.79880    1.000
    O789     O        0.80930    0.36490    0.75320    1.000
    O790     O        0.79710    0.36540    0.69960    1.000
    O791     O        0.83650    0.34270    0.71810    1.000
    O792     O        0.83680    0.47170    0.78590    1.000
    O793     O        0.83040    0.44460    0.66780    1.000
    O794     O        0.88200    0.47340    0.83000    1.000
    O795     O        0.82950    0.39350    0.71710    1.000
    O796     O        0.86610    0.42660    0.69960    1.000
    O797     O        0.84130    0.46950    0.71170    1.000
    O798     O        0.87250    0.47210    0.67830    1.000
    Al172    Al       0.82990    0.86620    0.28050    1.000
    Al173    Al       0.85580    0.96160    0.31120    1.000
    Al174    Al       0.86160    0.90470    0.22240    1.000
    P172     P        0.87040    0.91120    0.28110    1.000
    P173     P        0.81620    0.86530    0.22080    1.000
    P174     P        0.85170    0.95400    0.18830    1.000
    O799     O        0.87390    0.91910    0.25040    1.000
    O800     O        0.88730    0.88590    0.28700    1.000
    O801     O        0.84090    0.89830    0.28130    1.000
    O802     O        0.87120    0.93410    0.29880    1.000
    O803     O        0.80930    0.86490    0.25320    1.000
    O804     O        0.79710    0.86540    0.19960    1.000
    O805     O        0.83650    0.84270    0.21810    1.000
    O806     O        0.83680    0.97170    0.28590    1.000
    O807     O        0.83040    0.94460    0.16780    1.000
    O808     O        0.88200    0.97340    0.33000    1.000
    O809     O        0.82950    0.89350    0.21710    1.000
    O810     O        0.86610    0.92660    0.19960    1.000
    O811     O        0.84130    0.96950    0.21170    1.000
    O812     O        0.87250    0.97210    0.17830    1.000
    Al175    Al       0.32990    0.36620    0.28050    1.000
    Al176    Al       0.35580    0.46160    0.31120    1.000
    Al177    Al       0.36160    0.40470    0.22240    1.000
    P175     P        0.37040    0.41120    0.28110    1.000
    P176     P        0.31620    0.36530    0.22080    1.000
    P177     P        0.35170    0.45400    0.18830    1.000
    O813     O        0.37390    0.41910    0.25040    1.000
    O814     O        0.38730    0.38590    0.28700    1.000
    O815     O        0.34090    0.39830    0.28130    1.000
    O816     O        0.37120    0.43410    0.29880    1.000
    O817     O        0.30930    0.36490    0.25320    1.000
    O818     O        0.29710    0.36540    0.19960    1.000
    O819     O        0.33650    0.34270    0.21810    1.000
    O820     O        0.33680    0.47170    0.28590    1.000
    O821     O        0.33040    0.44460    0.16780    1.000
    O822     O        0.38200    0.47340    0.33000    1.000
    O823     O        0.32950    0.39350    0.21710    1.000
    O824     O        0.36610    0.42660    0.19960    1.000
    O825     O        0.34130    0.46950    0.21170    1.000
    O826     O        0.37250    0.47210    0.17830    1.000
    Al178    Al       0.32990    0.86620    0.78050    1.000
    Al179    Al       0.35580    0.96160    0.81120    1.000
    Al180    Al       0.36160    0.90470    0.72240    1.000
    P178     P        0.37040    0.91120    0.78110    1.000
    P179     P        0.31620    0.86530    0.72080    1.000
    P180     P        0.35170    0.95400    0.68830    1.000
    O827     O        0.37390    0.91910    0.75040    1.000
    O828     O        0.38730    0.88590    0.78700    1.000
    O829     O        0.34090    0.89830    0.78130    1.000
    O830     O        0.37120    0.93410    0.79880    1.000
    O831     O        0.30930    0.86490    0.75320    1.000
    O832     O        0.29710    0.86540    0.69960    1.000
    O833     O        0.33650    0.84270    0.71810    1.000
    O834     O        0.33680    0.97170    0.78590    1.000
    O835     O        0.33040    0.94460    0.66780    1.000
    O836     O        0.38200    0.97340    0.83000    1.000
    O837     O        0.32950    0.89350    0.71710    1.000
    O838     O        0.36610    0.92660    0.69960    1.000
    O839     O        0.34130    0.96950    0.71170    1.000
    O840     O        0.37250    0.97210    0.67830    1.000
    Al181    Al       0.17010    0.63380    0.78050    1.000
    Al182    Al       0.14420    0.53840    0.81120    1.000
    Al183    Al       0.13840    0.59530    0.72240    1.000
    P181     P        0.12960    0.58880    0.78110    1.000
    P182     P        0.18380    0.63470    0.72080    1.000
    P183     P        0.14830    0.54600    0.68830    1.000
    O841     O        0.12610    0.58090    0.75040    1.000
    O842     O        0.11270    0.61410    0.78700    1.000
    O843     O        0.15910    0.60170    0.78130    1.000
    O844     O        0.12880    0.56590    0.79880    1.000
    O845     O        0.19070    0.63510    0.75320    1.000
    O846     O        0.20290    0.63460    0.69960    1.000
    O847     O        0.16350    0.65730    0.71810    1.000
    O848     O        0.16320    0.52830    0.78590    1.000
    O849     O        0.16960    0.55540    0.66780    1.000
    O850     O        0.11800    0.52660    0.83000    1.000
    O851     O        0.17050    0.60650    0.71710    1.000
    O852     O        0.13390    0.57340    0.69960    1.000
    O853     O        0.15870    0.53050    0.71170    1.000
    O854     O        0.12750    0.52790    0.67830    1.000
    Al184    Al       0.17010    0.13380    0.28050    1.000
    Al185    Al       0.14420    0.03840    0.31120    1.000
    Al186    Al       0.13840    0.09530    0.22240    1.000
    P184     P        0.12960    0.08880    0.28110    1.000
    P185     P        0.18380    0.13470    0.22080    1.000
    P186     P        0.14830    0.04600    0.18830    1.000
    O855     O        0.12610    0.08090    0.25040    1.000
    O856     O        0.11270    0.11410    0.28700    1.000
    O857     O        0.15910    0.10170    0.28130    1.000
    O858     O        0.12880    0.06590    0.29880    1.000
    O859     O        0.19070    0.13510    0.25320    1.000
    O860     O        0.20290    0.13460    0.19960    1.000
    O861     O        0.16350    0.15730    0.21810    1.000
    O862     O        0.16320    0.02830    0.28590    1.000
    O863     O        0.16960    0.05540    0.16780    1.000
    O864     O        0.11800    0.02660    0.33000    1.000
    O865     O        0.17050    0.10650    0.21710    1.000
    O866     O        0.13390    0.07340    0.19960    1.000
    O867     O        0.15870    0.03050    0.21170    1.000
    O868     O        0.12750    0.02790    0.17830    1.000
    Al187    Al       0.67010    0.63380    0.28050    1.000
    Al188    Al       0.64420    0.53840    0.31120    1.000
    Al189    Al       0.63840    0.59530    0.22240    1.000
    P187     P        0.62960    0.58880    0.28110    1.000
    P188     P        0.68380    0.63470    0.22080    1.000
    P189     P        0.64830    0.54600    0.18830    1.000
    O869     O        0.62610    0.58090    0.25040    1.000
    O870     O        0.61270    0.61410    0.28700    1.000
    O871     O        0.65910    0.60170    0.28130    1.000
    O872     O        0.62880    0.56590    0.29880    1.000
    O873     O        0.69070    0.63510    0.25320    1.000
    O874     O        0.70290    0.63460    0.19960    1.000
    O875     O        0.66350    0.65730    0.21810    1.000
    O876     O        0.66320    0.52830    0.28590    1.000
    O877     O        0.66960    0.55540    0.16780    1.000
    O878     O        0.61800    0.52660    0.33000    1.000
    O879     O        0.67050    0.60650    0.21710    1.000
    O880     O        0.63390    0.57340    0.19960    1.000
    O881     O        0.65870    0.53050    0.21170    1.000
    O882     O        0.62750    0.52790    0.17830    1.000
    Al190    Al       0.67010    0.13380    0.78050    1.000
    Al191    Al       0.64420    0.03840    0.81120    1.000
    Al192    Al       0.63840    0.09530    0.72240    1.000
    P190     P        0.62960    0.08880    0.78110    1.000
    P191     P        0.68380    0.13470    0.72080    1.000
    P192     P        0.64830    0.04600    0.68830    1.000
    O883     O        0.62610    0.08090    0.75040    1.000
    O884     O        0.61270    0.11410    0.78700    1.000
    O885     O        0.65910    0.10170    0.78130    1.000
    O886     O        0.62880    0.06590    0.79880    1.000
    O887     O        0.69070    0.13510    0.75320    1.000
    O888     O        0.70290    0.13460    0.69960    1.000
    O889     O        0.66350    0.15730    0.71810    1.000
    O890     O        0.66320    0.02830    0.78590    1.000
    O891     O        0.66960    0.05540    0.66780    1.000
    O892     O        0.61800    0.02660    0.83000    1.000
    O893     O        0.67050    0.10650    0.71710    1.000
    O894     O        0.63390    0.07340    0.69960    1.000
    O895     O        0.65870    0.03050    0.71170    1.000
    O896     O        0.62750    0.02790    0.67830    1.000
    Al193    Al       0.63380    0.78050    0.17010    1.000
    Al194    Al       0.53840    0.81120    0.14420    1.000
    Al195    Al       0.59530    0.72240    0.13840    1.000
    P193     P        0.58880    0.78110    0.12960    1.000
    P194     P        0.63470    0.72080    0.18380    1.000
    P195     P        0.54600    0.68830    0.14830    1.000
    O897     O        0.58090    0.75040    0.12610    1.000
    O898     O        0.61410    0.78700    0.11270    1.000
    O899     O        0.60170    0.78130    0.15910    1.000
    O900     O        0.56590    0.79880    0.12880    1.000
    O901     O        0.63510    0.75320    0.19070    1.000
    O902     O        0.63460    0.69960    0.20290    1.000
    O903     O        0.65730    0.71810    0.16350    1.000
    O904     O        0.52830    0.78590    0.16320    1.000
    O905     O        0.55540    0.66780    0.16960    1.000
    O906     O        0.52660    0.83000    0.11800    1.000
    O907     O        0.60650    0.71710    0.17050    1.000
    O908     O        0.57340    0.69960    0.13390    1.000
    O909     O        0.53050    0.71170    0.15870    1.000
    O910     O        0.52790    0.67830    0.12750    1.000
    Al196    Al       0.63380    0.28050    0.67010    1.000
    Al197    Al       0.53840    0.31120    0.64420    1.000
    Al198    Al       0.59530    0.22240    0.63840    1.000
    P196     P        0.58880    0.28110    0.62960    1.000
    P197     P        0.63470    0.22080    0.68380    1.000
    P198     P        0.54600    0.18830    0.64830    1.000
    O911     O        0.58090    0.25040    0.62610    1.000
    O912     O        0.61410    0.28700    0.61270    1.000
    O913     O        0.60170    0.28130    0.65910    1.000
    O914     O        0.56590    0.29880    0.62880    1.000
    O915     O        0.63510    0.25320    0.69070    1.000
    O916     O        0.63460    0.19960    0.70290    1.000
    O917     O        0.65730    0.21810    0.66350    1.000
    O918     O        0.52830    0.28590    0.66320    1.000
    O919     O        0.55540    0.16780    0.66960    1.000
    O920     O        0.52660    0.33000    0.61800    1.000
    O921     O        0.60650    0.21710    0.67050    1.000
    O922     O        0.57340    0.19960    0.63390    1.000
    O923     O        0.53050    0.21170    0.65870    1.000
    O924     O        0.52790    0.17830    0.62750    1.000
    Al199    Al       0.13380    0.78050    0.67010    1.000
    Al200    Al       0.03840    0.81120    0.64420    1.000
    Al201    Al       0.09530    0.72240    0.63840    1.000
    P199     P        0.08880    0.78110    0.62960    1.000
    P200     P        0.13470    0.72080    0.68380    1.000
    P201     P        0.04600    0.68830    0.64830    1.000
    O925     O        0.08090    0.75040    0.62610    1.000
    O926     O        0.11410    0.78700    0.61270    1.000
    O927     O        0.10170    0.78130    0.65910    1.000
    O928     O        0.06590    0.79880    0.62880    1.000
    O929     O        0.13510    0.75320    0.69070    1.000
    O930     O        0.13460    0.69960    0.70290    1.000
    O931     O        0.15730    0.71810    0.66350    1.000
    O932     O        0.02830    0.78590    0.66320    1.000
    O933     O        0.05540    0.66780    0.66960    1.000
    O934     O        0.02660    0.83000    0.61800    1.000
    O935     O        0.10650    0.71710    0.67050    1.000
    O936     O        0.07340    0.69960    0.63390    1.000
    O937     O        0.03050    0.71170    0.65870    1.000
    O938     O        0.02790    0.67830    0.62750    1.000
    Al202    Al       0.13380    0.28050    0.17010    1.000
    Al203    Al       0.03840    0.31120    0.14420    1.000
    Al204    Al       0.09530    0.22240    0.13840    1.000
    P202     P        0.08880    0.28110    0.12960    1.000
    P203     P        0.13470    0.22080    0.18380    1.000
    P204     P        0.04600    0.18830    0.14830    1.000
    O939     O        0.08090    0.25040    0.12610    1.000
    O940     O        0.11410    0.28700    0.11270    1.000
    O941     O        0.10170    0.28130    0.15910    1.000
    O942     O        0.06590    0.29880    0.12880    1.000
    O943     O        0.13510    0.25320    0.19070    1.000
    O944     O        0.13460    0.19960    0.20290    1.000
    O945     O        0.15730    0.21810    0.16350    1.000
    O946     O        0.02830    0.28590    0.16320    1.000
    O947     O        0.05540    0.16780    0.16960    1.000
    O948     O        0.02660    0.33000    0.11800    1.000
    O949     O        0.10650    0.21710    0.17050    1.000
    O950     O        0.07340    0.19960    0.13390    1.000
    O951     O        0.03050    0.21170    0.15870    1.000
    O952     O        0.02790    0.17830    0.12750    1.000
    Al205    Al       0.36620    0.78050    0.82990    1.000
    Al206    Al       0.46160    0.81120    0.85580    1.000
    Al207    Al       0.40470    0.72240    0.86160    1.000
    P205     P        0.41120    0.78110    0.87040    1.000
    P206     P        0.36530    0.72080    0.81620    1.000
    P207     P        0.45400    0.68830    0.85170    1.000
    O953     O        0.41910    0.75040    0.87390    1.000
    O954     O        0.38590    0.78700    0.88730    1.000
    O955     O        0.39830    0.78130    0.84090    1.000
    O956     O        0.43410    0.79880    0.87120    1.000
    O957     O        0.36490    0.75320    0.80930    1.000
    O958     O        0.36540    0.69960    0.79710    1.000
    O959     O        0.34270    0.71810    0.83650    1.000
    O960     O        0.47170    0.78590    0.83680    1.000
    O961     O        0.44460    0.66780    0.83040    1.000
    O962     O        0.47340    0.83000    0.88200    1.000
    O963     O        0.39350    0.71710    0.82950    1.000
    O964     O        0.42660    0.69960    0.86610    1.000
    O965     O        0.46950    0.71170    0.84130    1.000
    O966     O        0.47210    0.67830    0.87250    1.000
    Al208    Al       0.36620    0.28050    0.32990    1.000
    Al209    Al       0.46160    0.31120    0.35580    1.000
    Al210    Al       0.40470    0.22240    0.36160    1.000
    P208     P        0.41120    0.28110    0.37040    1.000
    P209     P        0.36530    0.22080    0.31620    1.000
    P210     P        0.45400    0.18830    0.35170    1.000
    O967     O        0.41910    0.25040    0.37390    1.000
    O968     O        0.38590    0.28700    0.38730    1.000
    O969     O        0.39830    0.28130    0.34090    1.000
    O970     O        0.43410    0.29880    0.37120    1.000
    O971     O        0.36490    0.25320    0.30930    1.000
    O972     O        0.36540    0.19960    0.29710    1.000
    O973     O        0.34270    0.21810    0.33650    1.000
    O974     O        0.47170    0.28590    0.33680    1.000
    O975     O        0.44460    0.16780    0.33040    1.000
    O976     O        0.47340    0.33000    0.38200    1.000
    O977     O        0.39350    0.21710    0.32950    1.000
    O978     O        0.42660    0.19960    0.36610    1.000
    O979     O        0.46950    0.21170    0.34130    1.000
    O980     O        0.47210    0.17830    0.37250    1.000
    Al211    Al       0.86620    0.78050    0.32990    1.000
    Al212    Al       0.96160    0.81120    0.35580    1.000
    Al213    Al       0.90470    0.72240    0.36160    1.000
    P211     P        0.91120    0.78110    0.37040    1.000
    P212     P        0.86530    0.72080    0.31620    1.000
    P213     P        0.95400    0.68830    0.35170    1.000
    O981     O        0.91910    0.75040    0.37390    1.000
    O982     O        0.88590    0.78700    0.38730    1.000
    O983     O        0.89830    0.78130    0.34090    1.000
    O984     O        0.93410    0.79880    0.37120    1.000
    O985     O        0.86490    0.75320    0.30930    1.000
    O986     O        0.86540    0.69960    0.29710    1.000
    O987     O        0.84270    0.71810    0.33650    1.000
    O988     O        0.97170    0.78590    0.33680    1.000
    O989     O        0.94460    0.66780    0.33040    1.000
    O990     O        0.97340    0.83000    0.38200    1.000
    O991     O        0.89350    0.71710    0.32950    1.000
    O992     O        0.92660    0.69960    0.36610    1.000
    O993     O        0.96950    0.71170    0.34130    1.000
    O994     O        0.97210    0.67830    0.37250    1.000
    Al214    Al       0.86620    0.28050    0.82990    1.000
    Al215    Al       0.96160    0.31120    0.85580    1.000
    Al216    Al       0.90470    0.22240    0.86160    1.000
    P214     P        0.91120    0.28110    0.87040    1.000
    P215     P        0.86530    0.22080    0.81620    1.000
    P216     P        0.95400    0.18830    0.85170    1.000
    O995     O        0.91910    0.25040    0.87390    1.000
    O996     O        0.88590    0.28700    0.88730    1.000
    O997     O        0.89830    0.28130    0.84090    1.000
    O998     O        0.93410    0.29880    0.87120    1.000
    O999     O        0.86490    0.25320    0.80930    1.000
    O1000    O        0.86540    0.19960    0.79710    1.000
    O1001    O        0.84270    0.21810    0.83650    1.000
    O1002    O        0.97170    0.28590    0.83680    1.000
    O1003    O        0.94460    0.16780    0.83040    1.000
    O1004    O        0.97340    0.33000    0.88200    1.000
    O1005    O        0.89350    0.21710    0.82950    1.000
    O1006    O        0.92660    0.19960    0.86610    1.000
    O1007    O        0.96950    0.21170    0.84130    1.000
    O1008    O        0.97210    0.17830    0.87250    1.000
    Al217    Al       0.36620    0.21950    0.17010    1.000
    Al218    Al       0.46160    0.18880    0.14420    1.000
    Al219    Al       0.40470    0.27760    0.13840    1.000
    P217     P        0.41120    0.21890    0.12960    1.000
    P218     P        0.36530    0.27920    0.18380    1.000
    P219     P        0.45400    0.31170    0.14830    1.000
    O1009    O        0.41910    0.24960    0.12610    1.000
    O1010    O        0.38590    0.21300    0.11270    1.000
    O1011    O        0.39830    0.21870    0.15910    1.000
    O1012    O        0.43410    0.20120    0.12880    1.000
    O1013    O        0.36490    0.24680    0.19070    1.000
    O1014    O        0.36540    0.30040    0.20290    1.000
    O1015    O        0.34270    0.28190    0.16350    1.000
    O1016    O        0.47170    0.21410    0.16320    1.000
    O1017    O        0.44460    0.33220    0.16960    1.000
    O1018    O        0.47340    0.17000    0.11800    1.000
    O1019    O        0.39350    0.28290    0.17050    1.000
    O1020    O        0.42660    0.30040    0.13390    1.000
    O1021    O        0.46950    0.28830    0.15870    1.000
    O1022    O        0.47210    0.32170    0.12750    1.000
    Al220    Al       0.36620    0.71950    0.67010    1.000
    Al221    Al       0.46160    0.68880    0.64420    1.000
    Al222    Al       0.40470    0.77760    0.63840    1.000
    P220     P        0.41120    0.71890    0.62960    1.000
    P221     P        0.36530    0.77920    0.68380    1.000
    P222     P        0.45400    0.81170    0.64830    1.000
    O1023    O        0.41910    0.74960    0.62610    1.000
    O1024    O        0.38590    0.71300    0.61270    1.000
    O1025    O        0.39830    0.71870    0.65910    1.000
    O1026    O        0.43410    0.70120    0.62880    1.000
    O1027    O        0.36490    0.74680    0.69070    1.000
    O1028    O        0.36540    0.80040    0.70290    1.000
    O1029    O        0.34270    0.78190    0.66350    1.000
    O1030    O        0.47170    0.71410    0.66320    1.000
    O1031    O        0.44460    0.83220    0.66960    1.000
    O1032    O        0.47340    0.67000    0.61800    1.000
    O1033    O        0.39350    0.78290    0.67050    1.000
    O1034    O        0.42660    0.80040    0.63390    1.000
    O1035    O        0.46950    0.78830    0.65870    1.000
    O1036    O        0.47210    0.82170    0.62750    1.000
    Al223    Al       0.86620    0.21950    0.67010    1.000
    Al224    Al       0.96160    0.18880    0.64420    1.000
    Al225    Al       0.90470    0.27760    0.63840    1.000
    P223     P        0.91120    0.21890    0.62960    1.000
    P224     P        0.86530    0.27920    0.68380    1.000
    P225     P        0.95400    0.31170    0.64830    1.000
    O1037    O        0.91910    0.24960    0.62610    1.000
    O1038    O        0.88590    0.21300    0.61270    1.000
    O1039    O        0.89830    0.21870    0.65910    1.000
    O1040    O        0.93410    0.20120    0.62880    1.000
    O1041    O        0.86490    0.24680    0.69070    1.000
    O1042    O        0.86540    0.30040    0.70290    1.000
    O1043    O        0.84270    0.28190    0.66350    1.000
    O1044    O        0.97170    0.21410    0.66320    1.000
    O1045    O        0.94460    0.33220    0.66960    1.000
    O1046    O        0.97340    0.17000    0.61800    1.000
    O1047    O        0.89350    0.28290    0.67050    1.000
    O1048    O        0.92660    0.30040    0.63390    1.000
    O1049    O        0.96950    0.28830    0.65870    1.000
    O1050    O        0.97210    0.32170    0.62750    1.000
    Al226    Al       0.86620    0.71950    0.17010    1.000
    Al227    Al       0.96160    0.68880    0.14420    1.000
    Al228    Al       0.90470    0.77760    0.13840    1.000
    P226     P        0.91120    0.71890    0.12960    1.000
    P227     P        0.86530    0.77920    0.18380    1.000
    P228     P        0.95400    0.81170    0.14830    1.000
    O1051    O        0.91910    0.74960    0.12610    1.000
    O1052    O        0.88590    0.71300    0.11270    1.000
    O1053    O        0.89830    0.71870    0.15910    1.000
    O1054    O        0.93410    0.70120    0.12880    1.000
    O1055    O        0.86490    0.74680    0.19070    1.000
    O1056    O        0.86540    0.80040    0.20290    1.000
    O1057    O        0.84270    0.78190    0.16350    1.000
    O1058    O        0.97170    0.71410    0.16320    1.000
    O1059    O        0.94460    0.83220    0.16960    1.000
    O1060    O        0.97340    0.67000    0.11800    1.000
    O1061    O        0.89350    0.78290    0.17050    1.000
    O1062    O        0.92660    0.80040    0.13390    1.000
    O1063    O        0.96950    0.78830    0.15870    1.000
    O1064    O        0.97210    0.82170    0.12750    1.000
    Al229    Al       0.63380    0.21950    0.82990    1.000
    Al230    Al       0.53840    0.18880    0.85580    1.000
    Al231    Al       0.59530    0.27760    0.86160    1.000
    P229     P        0.58880    0.21890    0.87040    1.000
    P230     P        0.63470    0.27920    0.81620    1.000
    P231     P        0.54600    0.31170    0.85170    1.000
    O1065    O        0.58090    0.24960    0.87390    1.000
    O1066    O        0.61410    0.21300    0.88730    1.000
    O1067    O        0.60170    0.21870    0.84090    1.000
    O1068    O        0.56590    0.20120    0.87120    1.000
    O1069    O        0.63510    0.24680    0.80930    1.000
    O1070    O        0.63460    0.30040    0.79710    1.000
    O1071    O        0.65730    0.28190    0.83650    1.000
    O1072    O        0.52830    0.21410    0.83680    1.000
    O1073    O        0.55540    0.33220    0.83040    1.000
    O1074    O        0.52660    0.17000    0.88200    1.000
    O1075    O        0.60650    0.28290    0.82950    1.000
    O1076    O        0.57340    0.30040    0.86610    1.000
    O1077    O        0.53050    0.28830    0.84130    1.000
    O1078    O        0.52790    0.32170    0.87250    1.000
    Al232    Al       0.63380    0.71950    0.32990    1.000
    Al233    Al       0.53840    0.68880    0.35580    1.000
    Al234    Al       0.59530    0.77760    0.36160    1.000
    P232     P        0.58880    0.71890    0.37040    1.000
    P233     P        0.63470    0.77920    0.31620    1.000
    P234     P        0.54600    0.81170    0.35170    1.000
    O1079    O        0.58090    0.74960    0.37390    1.000
    O1080    O        0.61410    0.71300    0.38730    1.000
    O1081    O        0.60170    0.71870    0.34090    1.000
    O1082    O        0.56590    0.70120    0.37120    1.000
    O1083    O        0.63510    0.74680    0.30930    1.000
    O1084    O        0.63460    0.80040    0.29710    1.000
    O1085    O        0.65730    0.78190    0.33650    1.000
    O1086    O        0.52830    0.71410    0.33680    1.000
    O1087    O        0.55540    0.83220    0.33040    1.000
    O1088    O        0.52660    0.67000    0.38200    1.000
    O1089    O        0.60650    0.78290    0.32950    1.000
    O1090    O        0.57340    0.80040    0.36610    1.000
    O1091    O        0.53050    0.78830    0.34130    1.000
    O1092    O        0.52790    0.82170    0.37250    1.000
    Al235    Al       0.13380    0.21950    0.32990    1.000
    Al236    Al       0.03840    0.18880    0.35580    1.000
    Al237    Al       0.09530    0.27760    0.36160    1.000
    P235     P        0.08880    0.21890    0.37040    1.000
    P236     P        0.13470    0.27920    0.31620    1.000
    P237     P        0.04600    0.31170    0.35170    1.000
    O1093    O        0.08090    0.24960    0.37390    1.000
    O1094    O        0.11410    0.21300    0.38730    1.000
    O1095    O        0.10170    0.21870    0.34090    1.000
    O1096    O        0.06590    0.20120    0.37120    1.000
    O1097    O        0.13510    0.24680    0.30930    1.000
    O1098    O        0.13460    0.30040    0.29710    1.000
    O1099    O        0.15730    0.28190    0.33650    1.000
    O1100    O        0.02830    0.21410    0.33680    1.000
    O1101    O        0.05540    0.33220    0.33040    1.000
    O1102    O        0.02660    0.17000    0.38200    1.000
    O1103    O        0.10650    0.28290    0.32950    1.000
    O1104    O        0.07340    0.30040    0.36610    1.000
    O1105    O        0.03050    0.28830    0.34130    1.000
    O1106    O        0.02790    0.32170    0.37250    1.000
    Al238    Al       0.13380    0.71950    0.82990    1.000
    Al239    Al       0.03840    0.68880    0.85580    1.000
    Al240    Al       0.09530    0.77760    0.86160    1.000
    P238     P        0.08880    0.71890    0.87040    1.000
    P239     P        0.13470    0.77920    0.81620    1.000
    P240     P        0.04600    0.81170    0.85170    1.000
    O1107    O        0.08090    0.74960    0.87390    1.000
    O1108    O        0.11410    0.71300    0.88730    1.000
    O1109    O        0.10170    0.71870    0.84090    1.000
    O1110    O        0.06590    0.70120    0.87120    1.000
    O1111    O        0.13510    0.74680    0.80930    1.000
    O1112    O        0.13460    0.80040    0.79710    1.000
    O1113    O        0.15730    0.78190    0.83650    1.000
    O1114    O        0.02830    0.71410    0.83680    1.000
    O1115    O        0.05540    0.83220    0.83040    1.000
    O1116    O        0.02660    0.67000    0.88200    1.000
    O1117    O        0.10650    0.78290    0.82950    1.000
    O1118    O        0.07340    0.80040    0.86610    1.000
    O1119    O        0.03050    0.78830    0.84130    1.000
    O1120    O        0.02790    0.82170    0.87250    1.000
    Al241    Al       0.78050    0.82990    0.36620    1.000
    Al242    Al       0.81120    0.85580    0.46160    1.000
    Al243    Al       0.72240    0.86160    0.40470    1.000
    P241     P        0.78110    0.87040    0.41120    1.000
    P242     P        0.72080    0.81620    0.36530    1.000
    P243     P        0.68830    0.85170    0.45400    1.000
    O1121    O        0.75040    0.87390    0.41910    1.000
    O1122    O        0.78700    0.88730    0.38590    1.000
    O1123    O        0.78130    0.84090    0.39830    1.000
    O1124    O        0.79880    0.87120    0.43410    1.000
    O1125    O        0.75320    0.80930    0.36490    1.000
    O1126    O        0.69960    0.79710    0.36540    1.000
    O1127    O        0.71810    0.83650    0.34270    1.000
    O1128    O        0.78590    0.83680    0.47170    1.000
    O1129    O        0.66780    0.83040    0.44460    1.000
    O1130    O        0.83000    0.88200    0.47340    1.000
    O1131    O        0.71710    0.82950    0.39350    1.000
    O1132    O        0.69960    0.86610    0.42660    1.000
    O1133    O        0.71170    0.84130    0.46950    1.000
    O1134    O        0.67830    0.87250    0.47210    1.000
    Al244    Al       0.78050    0.32990    0.86620    1.000
    Al245    Al       0.81120    0.35580    0.96160    1.000
    Al246    Al       0.72240    0.36160    0.90470    1.000
    P244     P        0.78110    0.37040    0.91120    1.000
    P245     P        0.72080    0.31620    0.86530    1.000
    P246     P        0.68830    0.35170    0.95400    1.000
    O1135    O        0.75040    0.37390    0.91910    1.000
    O1136    O        0.78700    0.38730    0.88590    1.000
    O1137    O        0.78130    0.34090    0.89830    1.000
    O1138    O        0.79880    0.37120    0.93410    1.000
    O1139    O        0.75320    0.30930    0.86490    1.000
    O1140    O        0.69960    0.29710    0.86540    1.000
    O1141    O        0.71810    0.33650    0.84270    1.000
    O1142    O        0.78590    0.33680    0.97170    1.000
    O1143    O        0.66780    0.33040    0.94460    1.000
    O1144    O        0.83000    0.38200    0.97340    1.000
    O1145    O        0.71710    0.32950    0.89350    1.000
    O1146    O        0.69960    0.36610    0.92660    1.000
    O1147    O        0.71170    0.34130    0.96950    1.000
    O1148    O        0.67830    0.37250    0.97210    1.000
    Al247    Al       0.28050    0.82990    0.86620    1.000
    Al248    Al       0.31120    0.85580    0.96160    1.000
    Al249    Al       0.22240    0.86160    0.90470    1.000
    P247     P        0.28110    0.87040    0.91120    1.000
    P248     P        0.22080    0.81620    0.86530    1.000
    P249     P        0.18830    0.85170    0.95400    1.000
    O1149    O        0.25040    0.87390    0.91910    1.000
    O1150    O        0.28700    0.88730    0.88590    1.000
    O1151    O        0.28130    0.84090    0.89830    1.000
    O1152    O        0.29880    0.87120    0.93410    1.000
    O1153    O        0.25320    0.80930    0.86490    1.000
    O1154    O        0.19960    0.79710    0.86540    1.000
    O1155    O        0.21810    0.83650    0.84270    1.000
    O1156    O        0.28590    0.83680    0.97170    1.000
    O1157    O        0.16780    0.83040    0.94460    1.000
    O1158    O        0.33000    0.88200    0.97340    1.000
    O1159    O        0.21710    0.82950    0.89350    1.000
    O1160    O        0.19960    0.86610    0.92660    1.000
    O1161    O        0.21170    0.84130    0.96950    1.000
    O1162    O        0.17830    0.87250    0.97210    1.000
    Al250    Al       0.28050    0.32990    0.36620    1.000
    Al251    Al       0.31120    0.35580    0.46160    1.000
    Al252    Al       0.22240    0.36160    0.40470    1.000
    P250     P        0.28110    0.37040    0.41120    1.000
    P251     P        0.22080    0.31620    0.36530    1.000
    P252     P        0.18830    0.35170    0.45400    1.000
    O1163    O        0.25040    0.37390    0.41910    1.000
    O1164    O        0.28700    0.38730    0.38590    1.000
    O1165    O        0.28130    0.34090    0.39830    1.000
    O1166    O        0.29880    0.37120    0.43410    1.000
    O1167    O        0.25320    0.30930    0.36490    1.000
    O1168    O        0.19960    0.29710    0.36540    1.000
    O1169    O        0.21810    0.33650    0.34270    1.000
    O1170    O        0.28590    0.33680    0.47170    1.000
    O1171    O        0.16780    0.33040    0.44460    1.000
    O1172    O        0.33000    0.38200    0.47340    1.000
    O1173    O        0.21710    0.32950    0.39350    1.000
    O1174    O        0.19960    0.36610    0.42660    1.000
    O1175    O        0.21170    0.34130    0.46950    1.000
    O1176    O        0.17830    0.37250    0.47210    1.000
    Al253    Al       0.78050    0.17010    0.63380    1.000
    Al254    Al       0.81120    0.14420    0.53840    1.000
    Al255    Al       0.72240    0.13840    0.59530    1.000
    P253     P        0.78110    0.12960    0.58880    1.000
    P254     P        0.72080    0.18380    0.63470    1.000
    P255     P        0.68830    0.14830    0.54600    1.000
    O1177    O        0.75040    0.12610    0.58090    1.000
    O1178    O        0.78700    0.11270    0.61410    1.000
    O1179    O        0.78130    0.15910    0.60170    1.000
    O1180    O        0.79880    0.12880    0.56590    1.000
    O1181    O        0.75320    0.19070    0.63510    1.000
    O1182    O        0.69960    0.20290    0.63460    1.000
    O1183    O        0.71810    0.16350    0.65730    1.000
    O1184    O        0.78590    0.16320    0.52830    1.000
    O1185    O        0.66780    0.16960    0.55540    1.000
    O1186    O        0.83000    0.11800    0.52660    1.000
    O1187    O        0.71710    0.17050    0.60650    1.000
    O1188    O        0.69960    0.13390    0.57340    1.000
    O1189    O        0.71170    0.15870    0.53050    1.000
    O1190    O        0.67830    0.12750    0.52790    1.000
    Al256    Al       0.78050    0.67010    0.13380    1.000
    Al257    Al       0.81120    0.64420    0.03840    1.000
    Al258    Al       0.72240    0.63840    0.09530    1.000
    P256     P        0.78110    0.62960    0.08880    1.000
    P257     P        0.72080    0.68380    0.13470    1.000
    P258     P        0.68830    0.64830    0.04600    1.000
    O1191    O        0.75040    0.62610    0.08090    1.000
    O1192    O        0.78700    0.61270    0.11410    1.000
    O1193    O        0.78130    0.65910    0.10170    1.000
    O1194    O        0.79880    0.62880    0.06590    1.000
    O1195    O        0.75320    0.69070    0.13510    1.000
    O1196    O        0.69960    0.70290    0.13460    1.000
    O1197    O        0.71810    0.66350    0.15730    1.000
    O1198    O        0.78590    0.66320    0.02830    1.000
    O1199    O        0.66780    0.66960    0.05540    1.000
    O1200    O        0.83000    0.61800    0.02660    1.000
    O1201    O        0.71710    0.67050    0.10650    1.000
    O1202    O        0.69960    0.63390    0.07340    1.000
    O1203    O        0.71170    0.65870    0.03050    1.000
    O1204    O        0.67830    0.62750    0.02790    1.000
    Al259    Al       0.28050    0.17010    0.13380    1.000
    Al260    Al       0.31120    0.14420    0.03840    1.000
    Al261    Al       0.22240    0.13840    0.09530    1.000
    P259     P        0.28110    0.12960    0.08880    1.000
    P260     P        0.22080    0.18380    0.13470    1.000
    P261     P        0.18830    0.14830    0.04600    1.000
    O1205    O        0.25040    0.12610    0.08090    1.000
    O1206    O        0.28700    0.11270    0.11410    1.000
    O1207    O        0.28130    0.15910    0.10170    1.000
    O1208    O        0.29880    0.12880    0.06590    1.000
    O1209    O        0.25320    0.19070    0.13510    1.000
    O1210    O        0.19960    0.20290    0.13460    1.000
    O1211    O        0.21810    0.16350    0.15730    1.000
    O1212    O        0.28590    0.16320    0.02830    1.000
    O1213    O        0.16780    0.16960    0.05540    1.000
    O1214    O        0.33000    0.11800    0.02660    1.000
    O1215    O        0.21710    0.17050    0.10650    1.000
    O1216    O        0.19960    0.13390    0.07340    1.000
    O1217    O        0.21170    0.15870    0.03050    1.000
    O1218    O        0.17830    0.12750    0.02790    1.000
    Al262    Al       0.28050    0.67010    0.63380    1.000
    Al263    Al       0.31120    0.64420    0.53840    1.000
    Al264    Al       0.22240    0.63840    0.59530    1.000
    P262     P        0.28110    0.62960    0.58880    1.000
    P263     P        0.22080    0.68380    0.63470    1.000
    P264     P        0.18830    0.64830    0.54600    1.000
    O1219    O        0.25040    0.62610    0.58090    1.000
    O1220    O        0.28700    0.61270    0.61410    1.000
    O1221    O        0.28130    0.65910    0.60170    1.000
    O1222    O        0.29880    0.62880    0.56590    1.000
    O1223    O        0.25320    0.69070    0.63510    1.000
    O1224    O        0.19960    0.70290    0.63460    1.000
    O1225    O        0.21810    0.66350    0.65730    1.000
    O1226    O        0.28590    0.66320    0.52830    1.000
    O1227    O        0.16780    0.66960    0.55540    1.000
    O1228    O        0.33000    0.61800    0.52660    1.000
    O1229    O        0.21710    0.67050    0.60650    1.000
    O1230    O        0.19960    0.63390    0.57340    1.000
    O1231    O        0.21170    0.65870    0.53050    1.000
    O1232    O        0.17830    0.62750    0.52790    1.000
    Al265    Al       0.21950    0.82990    0.63380    1.000
    Al266    Al       0.18880    0.85580    0.53840    1.000
    Al267    Al       0.27760    0.86160    0.59530    1.000
    P265     P        0.21890    0.87040    0.58880    1.000
    P266     P        0.27920    0.81620    0.63470    1.000
    P267     P        0.31170    0.85170    0.54600    1.000
    O1233    O        0.24960    0.87390    0.58090    1.000
    O1234    O        0.21300    0.88730    0.61410    1.000
    O1235    O        0.21870    0.84090    0.60170    1.000
    O1236    O        0.20120    0.87120    0.56590    1.000
    O1237    O        0.24680    0.80930    0.63510    1.000
    O1238    O        0.30040    0.79710    0.63460    1.000
    O1239    O        0.28190    0.83650    0.65730    1.000
    O1240    O        0.21410    0.83680    0.52830    1.000
    O1241    O        0.33220    0.83040    0.55540    1.000
    O1242    O        0.17000    0.88200    0.52660    1.000
    O1243    O        0.28290    0.82950    0.60650    1.000
    O1244    O        0.30040    0.86610    0.57340    1.000
    O1245    O        0.28830    0.84130    0.53050    1.000
    O1246    O        0.32170    0.87250    0.52790    1.000
    Al268    Al       0.21950    0.32990    0.13380    1.000
    Al269    Al       0.18880    0.35580    0.03840    1.000
    Al270    Al       0.27760    0.36160    0.09530    1.000
    P268     P        0.21890    0.37040    0.08880    1.000
    P269     P        0.27920    0.31620    0.13470    1.000
    P270     P        0.31170    0.35170    0.04600    1.000
    O1247    O        0.24960    0.37390    0.08090    1.000
    O1248    O        0.21300    0.38730    0.11410    1.000
    O1249    O        0.21870    0.34090    0.10170    1.000
    O1250    O        0.20120    0.37120    0.06590    1.000
    O1251    O        0.24680    0.30930    0.13510    1.000
    O1252    O        0.30040    0.29710    0.13460    1.000
    O1253    O        0.28190    0.33650    0.15730    1.000
    O1254    O        0.21410    0.33680    0.02830    1.000
    O1255    O        0.33220    0.33040    0.05540    1.000
    O1256    O        0.17000    0.38200    0.02660    1.000
    O1257    O        0.28290    0.32950    0.10650    1.000
    O1258    O        0.30040    0.36610    0.07340    1.000
    O1259    O        0.28830    0.34130    0.03050    1.000
    O1260    O        0.32170    0.37250    0.02790    1.000
    Al271    Al       0.71950    0.82990    0.13380    1.000
    Al272    Al       0.68880    0.85580    0.03840    1.000
    Al273    Al       0.77760    0.86160    0.09530    1.000
    P271     P        0.71890    0.87040    0.08880    1.000
    P272     P        0.77920    0.81620    0.13470    1.000
    P273     P        0.81170    0.85170    0.04600    1.000
    O1261    O        0.74960    0.87390    0.08090    1.000
    O1262    O        0.71300    0.88730    0.11410    1.000
    O1263    O        0.71870    0.84090    0.10170    1.000
    O1264    O        0.70120    0.87120    0.06590    1.000
    O1265    O        0.74680    0.80930    0.13510    1.000
    O1266    O        0.80040    0.79710    0.13460    1.000
    O1267    O        0.78190    0.83650    0.15730    1.000
    O1268    O        0.71410    0.83680    0.02830    1.000
    O1269    O        0.83220    0.83040    0.05540    1.000
    O1270    O        0.67000    0.88200    0.02660    1.000
    O1271    O        0.78290    0.82950    0.10650    1.000
    O1272    O        0.80040    0.86610    0.07340    1.000
    O1273    O        0.78830    0.84130    0.03050    1.000
    O1274    O        0.82170    0.87250    0.02790    1.000
    Al274    Al       0.71950    0.32990    0.63380    1.000
    Al275    Al       0.68880    0.35580    0.53840    1.000
    Al276    Al       0.77760    0.36160    0.59530    1.000
    P274     P        0.71890    0.37040    0.58880    1.000
    P275     P        0.77920    0.31620    0.63470    1.000
    P276     P        0.81170    0.35170    0.54600    1.000
    O1275    O        0.74960    0.37390    0.58090    1.000
    O1276    O        0.71300    0.38730    0.61410    1.000
    O1277    O        0.71870    0.34090    0.60170    1.000
    O1278    O        0.70120    0.37120    0.56590    1.000
    O1279    O        0.74680    0.30930    0.63510    1.000
    O1280    O        0.80040    0.29710    0.63460    1.000
    O1281    O        0.78190    0.33650    0.65730    1.000
    O1282    O        0.71410    0.33680    0.52830    1.000
    O1283    O        0.83220    0.33040    0.55540    1.000
    O1284    O        0.67000    0.38200    0.52660    1.000
    O1285    O        0.78290    0.32950    0.60650    1.000
    O1286    O        0.80040    0.36610    0.57340    1.000
    O1287    O        0.78830    0.34130    0.53050    1.000
    O1288    O        0.82170    0.37250    0.52790    1.000
    Al277    Al       0.21950    0.17010    0.36620    1.000
    Al278    Al       0.18880    0.14420    0.46160    1.000
    Al279    Al       0.27760    0.13840    0.40470    1.000
    P277     P        0.21890    0.12960    0.41120    1.000
    P278     P        0.27920    0.18380    0.36530    1.000
    P279     P        0.31170    0.14830    0.45400    1.000
    O1289    O        0.24960    0.12610    0.41910    1.000
    O1290    O        0.21300    0.11270    0.38590    1.000
    O1291    O        0.21870    0.15910    0.39830    1.000
    O1292    O        0.20120    0.12880    0.43410    1.000
    O1293    O        0.24680    0.19070    0.36490    1.000
    O1294    O        0.30040    0.20290    0.36540    1.000
    O1295    O        0.28190    0.16350    0.34270    1.000
    O1296    O        0.21410    0.16320    0.47170    1.000
    O1297    O        0.33220    0.16960    0.44460    1.000
    O1298    O        0.17000    0.11800    0.47340    1.000
    O1299    O        0.28290    0.17050    0.39350    1.000
    O1300    O        0.30040    0.13390    0.42660    1.000
    O1301    O        0.28830    0.15870    0.46950    1.000
    O1302    O        0.32170    0.12750    0.47210    1.000
    Al280    Al       0.21950    0.67010    0.86620    1.000
    Al281    Al       0.18880    0.64420    0.96160    1.000
    Al282    Al       0.27760    0.63840    0.90470    1.000
    P280     P        0.21890    0.62960    0.91120    1.000
    P281     P        0.27920    0.68380    0.86530    1.000
    P282     P        0.31170    0.64830    0.95400    1.000
    O1303    O        0.24960    0.62610    0.91910    1.000
    O1304    O        0.21300    0.61270    0.88590    1.000
    O1305    O        0.21870    0.65910    0.89830    1.000
    O1306    O        0.20120    0.62880    0.93410    1.000
    O1307    O        0.24680    0.69070    0.86490    1.000
    O1308    O        0.30040    0.70290    0.86540    1.000
    O1309    O        0.28190    0.66350    0.84270    1.000
    O1310    O        0.21410    0.66320    0.97170    1.000
    O1311    O        0.33220    0.66960    0.94460    1.000
    O1312    O        0.17000    0.61800    0.97340    1.000
    O1313    O        0.28290    0.67050    0.89350    1.000
    O1314    O        0.30040    0.63390    0.92660    1.000
    O1315    O        0.28830    0.65870    0.96950    1.000
    O1316    O        0.32170    0.62750    0.97210    1.000
    Al283    Al       0.71950    0.17010    0.86620    1.000
    Al284    Al       0.68880    0.14420    0.96160    1.000
    Al285    Al       0.77760    0.13840    0.90470    1.000
    P283     P        0.71890    0.12960    0.91120    1.000
    P284     P        0.77920    0.18380    0.86530    1.000
    P285     P        0.81170    0.14830    0.95400    1.000
    O1317    O        0.74960    0.12610    0.91910    1.000
    O1318    O        0.71300    0.11270    0.88590    1.000
    O1319    O        0.71870    0.15910    0.89830    1.000
    O1320    O        0.70120    0.12880    0.93410    1.000
    O1321    O        0.74680    0.19070    0.86490    1.000
    O1322    O        0.80040    0.20290    0.86540    1.000
    O1323    O        0.78190    0.16350    0.84270    1.000
    O1324    O        0.71410    0.16320    0.97170    1.000
    O1325    O        0.83220    0.16960    0.94460    1.000
    O1326    O        0.67000    0.11800    0.97340    1.000
    O1327    O        0.78290    0.17050    0.89350    1.000
    O1328    O        0.80040    0.13390    0.92660    1.000
    O1329    O        0.78830    0.15870    0.96950    1.000
    O1330    O        0.82170    0.12750    0.97210    1.000
    Al286    Al       0.71950    0.67010    0.36620    1.000
    Al287    Al       0.68880    0.64420    0.46160    1.000
    Al288    Al       0.77760    0.63840    0.40470    1.000
    P286     P        0.71890    0.62960    0.41120    1.000
    P287     P        0.77920    0.68380    0.36530    1.000
    P288     P        0.81170    0.64830    0.45400    1.000
    O1331    O        0.74960    0.62610    0.41910    1.000
    O1332    O        0.71300    0.61270    0.38590    1.000
    O1333    O        0.71870    0.65910    0.39830    1.000
    O1334    O        0.70120    0.62880    0.43410    1.000
    O1335    O        0.74680    0.69070    0.36490    1.000
    O1336    O        0.80040    0.70290    0.36540    1.000
    O1337    O        0.78190    0.66350    0.34270    1.000
    O1338    O        0.71410    0.66320    0.47170    1.000
    O1339    O        0.83220    0.66960    0.44460    1.000
    O1340    O        0.67000    0.61800    0.47340    1.000
    O1341    O        0.78290    0.67050    0.39350    1.000
    O1342    O        0.80040    0.63390    0.42660    1.000
    O1343    O        0.78830    0.65870    0.46950    1.000
    O1344    O        0.82170    0.62750    0.47210    1.000
    Al289    Al       0.86620    0.67010    0.71950    1.000
    Al290    Al       0.96160    0.64420    0.68880    1.000
    Al291    Al       0.90470    0.63840    0.77760    1.000
    P289     P        0.91120    0.62960    0.71890    1.000
    P290     P        0.86530    0.68380    0.77920    1.000
    P291     P        0.95400    0.64830    0.81170    1.000
    O1345    O        0.91910    0.62610    0.74960    1.000
    O1346    O        0.88590    0.61270    0.71300    1.000
    O1347    O        0.89830    0.65910    0.71870    1.000
    O1348    O        0.93410    0.62880    0.70120    1.000
    O1349    O        0.86490    0.69070    0.74680    1.000
    O1350    O        0.86540    0.70290    0.80040    1.000
    O1351    O        0.84270    0.66350    0.78190    1.000
    O1352    O        0.97170    0.66320    0.71410    1.000
    O1353    O        0.94460    0.66960    0.83220    1.000
    O1354    O        0.97340    0.61800    0.67000    1.000
    O1355    O        0.89350    0.67050    0.78290    1.000
    O1356    O        0.92660    0.63390    0.80040    1.000
    O1357    O        0.96950    0.65870    0.78830    1.000
    O1358    O        0.97210    0.62750    0.82170    1.000
    Al292    Al       0.86620    0.17010    0.21950    1.000
    Al293    Al       0.96160    0.14420    0.18880    1.000
    Al294    Al       0.90470    0.13840    0.27760    1.000
    P292     P        0.91120    0.12960    0.21890    1.000
    P293     P        0.86530    0.18380    0.27920    1.000
    P294     P        0.95400    0.14830    0.31170    1.000
    O1359    O        0.91910    0.12610    0.24960    1.000
    O1360    O        0.88590    0.11270    0.21300    1.000
    O1361    O        0.89830    0.15910    0.21870    1.000
    O1362    O        0.93410    0.12880    0.20120    1.000
    O1363    O        0.86490    0.19070    0.24680    1.000
    O1364    O        0.86540    0.20290    0.30040    1.000
    O1365    O        0.84270    0.16350    0.28190    1.000
    O1366    O        0.97170    0.16320    0.21410    1.000
    O1367    O        0.94460    0.16960    0.33220    1.000
    O1368    O        0.97340    0.11800    0.17000    1.000
    O1369    O        0.89350    0.17050    0.28290    1.000
    O1370    O        0.92660    0.13390    0.30040    1.000
    O1371    O        0.96950    0.15870    0.28830    1.000
    O1372    O        0.97210    0.12750    0.32170    1.000
    Al295    Al       0.36620    0.67010    0.21950    1.000
    Al296    Al       0.46160    0.64420    0.18880    1.000
    Al297    Al       0.40470    0.63840    0.27760    1.000
    P295     P        0.41120    0.62960    0.21890    1.000
    P296     P        0.36530    0.68380    0.27920    1.000
    P297     P        0.45400    0.64830    0.31170    1.000
    O1373    O        0.41910    0.62610    0.24960    1.000
    O1374    O        0.38590    0.61270    0.21300    1.000
    O1375    O        0.39830    0.65910    0.21870    1.000
    O1376    O        0.43410    0.62880    0.20120    1.000
    O1377    O        0.36490    0.69070    0.24680    1.000
    O1378    O        0.36540    0.70290    0.30040    1.000
    O1379    O        0.34270    0.66350    0.28190    1.000
    O1380    O        0.47170    0.66320    0.21410    1.000
    O1381    O        0.44460    0.66960    0.33220    1.000
    O1382    O        0.47340    0.61800    0.17000    1.000
    O1383    O        0.39350    0.67050    0.28290    1.000
    O1384    O        0.42660    0.63390    0.30040    1.000
    O1385    O        0.46950    0.65870    0.28830    1.000
    O1386    O        0.47210    0.62750    0.32170    1.000
    Al298    Al       0.36620    0.17010    0.71950    1.000
    Al299    Al       0.46160    0.14420    0.68880    1.000
    Al300    Al       0.40470    0.13840    0.77760    1.000
    P298     P        0.41120    0.12960    0.71890    1.000
    P299     P        0.36530    0.18380    0.77920    1.000
    P300     P        0.45400    0.14830    0.81170    1.000
    O1387    O        0.41910    0.12610    0.74960    1.000
    O1388    O        0.38590    0.11270    0.71300    1.000
    O1389    O        0.39830    0.15910    0.71870    1.000
    O1390    O        0.43410    0.12880    0.70120    1.000
    O1391    O        0.36490    0.19070    0.74680    1.000
    O1392    O        0.36540    0.20290    0.80040    1.000
    O1393    O        0.34270    0.16350    0.78190    1.000
    O1394    O        0.47170    0.16320    0.71410    1.000
    O1395    O        0.44460    0.16960    0.83220    1.000
    O1396    O        0.47340    0.11800    0.67000    1.000
    O1397    O        0.39350    0.17050    0.78290    1.000
    O1398    O        0.42660    0.13390    0.80040    1.000
    O1399    O        0.46950    0.15870    0.78830    1.000
    O1400    O        0.47210    0.12750    0.82170    1.000
    Al301    Al       0.13380    0.32990    0.71950    1.000
    Al302    Al       0.03840    0.35580    0.68880    1.000
    Al303    Al       0.09530    0.36160    0.77760    1.000
    P301     P        0.08880    0.37040    0.71890    1.000
    P302     P        0.13470    0.31620    0.77920    1.000
    P303     P        0.04600    0.35170    0.81170    1.000
    O1401    O        0.08090    0.37390    0.74960    1.000
    O1402    O        0.11410    0.38730    0.71300    1.000
    O1403    O        0.10170    0.34090    0.71870    1.000
    O1404    O        0.06590    0.37120    0.70120    1.000
    O1405    O        0.13510    0.30930    0.74680    1.000
    O1406    O        0.13460    0.29710    0.80040    1.000
    O1407    O        0.15730    0.33650    0.78190    1.000
    O1408    O        0.02830    0.33680    0.71410    1.000
    O1409    O        0.05540    0.33040    0.83220    1.000
    O1410    O        0.02660    0.38200    0.67000    1.000
    O1411    O        0.10650    0.32950    0.78290    1.000
    O1412    O        0.07340    0.36610    0.80040    1.000
    O1413    O        0.03050    0.34130    0.78830    1.000
    O1414    O        0.02790    0.37250    0.82170    1.000
    Al304    Al       0.13380    0.82990    0.21950    1.000
    Al305    Al       0.03840    0.85580    0.18880    1.000
    Al306    Al       0.09530    0.86160    0.27760    1.000
    P304     P        0.08880    0.87040    0.21890    1.000
    P305     P        0.13470    0.81620    0.27920    1.000
    P306     P        0.04600    0.85170    0.31170    1.000
    O1415    O        0.08090    0.87390    0.24960    1.000
    O1416    O        0.11410    0.88730    0.21300    1.000
    O1417    O        0.10170    0.84090    0.21870    1.000
    O1418    O        0.06590    0.87120    0.20120    1.000
    O1419    O        0.13510    0.80930    0.24680    1.000
    O1420    O        0.13460    0.79710    0.30040    1.000
    O1421    O        0.15730    0.83650    0.28190    1.000
    O1422    O        0.02830    0.83680    0.21410    1.000
    O1423    O        0.05540    0.83040    0.33220    1.000
    O1424    O        0.02660    0.88200    0.17000    1.000
    O1425    O        0.10650    0.82950    0.28290    1.000
    O1426    O        0.07340    0.86610    0.30040    1.000
    O1427    O        0.03050    0.84130    0.28830    1.000
    O1428    O        0.02790    0.87250    0.32170    1.000
    Al307    Al       0.63380    0.32990    0.21950    1.000
    Al308    Al       0.53840    0.35580    0.18880    1.000
    Al309    Al       0.59530    0.36160    0.27760    1.000
    P307     P        0.58880    0.37040    0.21890    1.000
    P308     P        0.63470    0.31620    0.27920    1.000
    P309     P        0.54600    0.35170    0.31170    1.000
    O1429    O        0.58090    0.37390    0.24960    1.000
    O1430    O        0.61410    0.38730    0.21300    1.000
    O1431    O        0.60170    0.34090    0.21870    1.000
    O1432    O        0.56590    0.37120    0.20120    1.000
    O1433    O        0.63510    0.30930    0.24680    1.000
    O1434    O        0.63460    0.29710    0.30040    1.000
    O1435    O        0.65730    0.33650    0.28190    1.000
    O1436    O        0.52830    0.33680    0.21410    1.000
    O1437    O        0.55540    0.33040    0.33220    1.000
    O1438    O        0.52660    0.38200    0.17000    1.000
    O1439    O        0.60650    0.32950    0.28290    1.000
    O1440    O        0.57340    0.36610    0.30040    1.000
    O1441    O        0.53050    0.34130    0.28830    1.000
    O1442    O        0.52790    0.37250    0.32170    1.000
    Al310    Al       0.63380    0.82990    0.71950    1.000
    Al311    Al       0.53840    0.85580    0.68880    1.000
    Al312    Al       0.59530    0.86160    0.77760    1.000
    P310     P        0.58880    0.87040    0.71890    1.000
    P311     P        0.63470    0.81620    0.77920    1.000
    P312     P        0.54600    0.85170    0.81170    1.000
    O1443    O        0.58090    0.87390    0.74960    1.000
    O1444    O        0.61410    0.88730    0.71300    1.000
    O1445    O        0.60170    0.84090    0.71870    1.000
    O1446    O        0.56590    0.87120    0.70120    1.000
    O1447    O        0.63510    0.80930    0.74680    1.000
    O1448    O        0.63460    0.79710    0.80040    1.000
    O1449    O        0.65730    0.83650    0.78190    1.000
    O1450    O        0.52830    0.83680    0.71410    1.000
    O1451    O        0.55540    0.83040    0.83220    1.000
    O1452    O        0.52660    0.88200    0.67000    1.000
    O1453    O        0.60650    0.82950    0.78290    1.000
    O1454    O        0.57340    0.86610    0.80040    1.000
    O1455    O        0.53050    0.84130    0.78830    1.000
    O1456    O        0.52790    0.87250    0.82170    1.000
    Al313    Al       0.13380    0.67010    0.28050    1.000
    Al314    Al       0.03840    0.64420    0.31120    1.000
    Al315    Al       0.09530    0.63840    0.22240    1.000
    P313     P        0.08880    0.62960    0.28110    1.000
    P314     P        0.13470    0.68380    0.22080    1.000
    P315     P        0.04600    0.64830    0.18830    1.000
    O1457    O        0.08090    0.62610    0.25040    1.000
    O1458    O        0.11410    0.61270    0.28700    1.000
    O1459    O        0.10170    0.65910    0.28130    1.000
    O1460    O        0.06590    0.62880    0.29880    1.000
    O1461    O        0.13510    0.69070    0.25320    1.000
    O1462    O        0.13460    0.70290    0.19960    1.000
    O1463    O        0.15730    0.66350    0.21810    1.000
    O1464    O        0.02830    0.66320    0.28590    1.000
    O1465    O        0.05540    0.66960    0.16780    1.000
    O1466    O        0.02660    0.61800    0.33000    1.000
    O1467    O        0.10650    0.67050    0.21710    1.000
    O1468    O        0.07340    0.63390    0.19960    1.000
    O1469    O        0.03050    0.65870    0.21170    1.000
    O1470    O        0.02790    0.62750    0.17830    1.000
    Al316    Al       0.13380    0.17010    0.78050    1.000
    Al317    Al       0.03840    0.14420    0.81120    1.000
    Al318    Al       0.09530    0.13840    0.72240    1.000
    P316     P        0.08880    0.12960    0.78110    1.000
    P317     P        0.13470    0.18380    0.72080    1.000
    P318     P        0.04600    0.14830    0.68830    1.000
    O1471    O        0.08090    0.12610    0.75040    1.000
    O1472    O        0.11410    0.11270    0.78700    1.000
    O1473    O        0.10170    0.15910    0.78130    1.000
    O1474    O        0.06590    0.12880    0.79880    1.000
    O1475    O        0.13510    0.19070    0.75320    1.000
    O1476    O        0.13460    0.20290    0.69960    1.000
    O1477    O        0.15730    0.16350    0.71810    1.000
    O1478    O        0.02830    0.16320    0.78590    1.000
    O1479    O        0.05540    0.16960    0.66780    1.000
    O1480    O        0.02660    0.11800    0.83000    1.000
    O1481    O        0.10650    0.17050    0.71710    1.000
    O1482    O        0.07340    0.13390    0.69960    1.000
    O1483    O        0.03050    0.15870    0.71170    1.000
    O1484    O        0.02790    0.12750    0.67830    1.000
    Al319    Al       0.63380    0.67010    0.78050    1.000
    Al320    Al       0.53840    0.64420    0.81120    1.000
    Al321    Al       0.59530    0.63840    0.72240    1.000
    P319     P        0.58880    0.62960    0.78110    1.000
    P320     P        0.63470    0.68380    0.72080    1.000
    P321     P        0.54600    0.64830    0.68830    1.000
    O1485    O        0.58090    0.62610    0.75040    1.000
    O1486    O        0.61410    0.61270    0.78700    1.000
    O1487    O        0.60170    0.65910    0.78130    1.000
    O1488    O        0.56590    0.62880    0.79880    1.000
    O1489    O        0.63510    0.69070    0.75320    1.000
    O1490    O        0.63460    0.70290    0.69960    1.000
    O1491    O        0.65730    0.66350    0.71810    1.000
    O1492    O        0.52830    0.66320    0.78590    1.000
    O1493    O        0.55540    0.66960    0.66780    1.000
    O1494    O        0.52660    0.61800    0.83000    1.000
    O1495    O        0.60650    0.67050    0.71710    1.000
    O1496    O        0.57340    0.63390    0.69960    1.000
    O1497    O        0.53050    0.65870    0.71170    1.000
    O1498    O        0.52790    0.62750    0.67830    1.000
    Al322    Al       0.63380    0.17010    0.28050    1.000
    Al323    Al       0.53840    0.14420    0.31120    1.000
    Al324    Al       0.59530    0.13840    0.22240    1.000
    P322     P        0.58880    0.12960    0.28110    1.000
    P323     P        0.63470    0.18380    0.22080    1.000
    P324     P        0.54600    0.14830    0.18830    1.000
    O1499    O        0.58090    0.12610    0.25040    1.000
    O1500    O        0.61410    0.11270    0.28700    1.000
    O1501    O        0.60170    0.15910    0.28130    1.000
    O1502    O        0.56590    0.12880    0.29880    1.000
    O1503    O        0.63510    0.19070    0.25320    1.000
    O1504    O        0.63460    0.20290    0.19960    1.000
    O1505    O        0.65730    0.16350    0.21810    1.000
    O1506    O        0.52830    0.16320    0.28590    1.000
    O1507    O        0.55540    0.16960    0.16780    1.000
    O1508    O        0.52660    0.11800    0.33000    1.000
    O1509    O        0.60650    0.17050    0.21710    1.000
    O1510    O        0.57340    0.13390    0.19960    1.000
    O1511    O        0.53050    0.15870    0.21170    1.000
    O1512    O        0.52790    0.12750    0.17830    1.000
    Al325    Al       0.86620    0.32990    0.28050    1.000
    Al326    Al       0.96160    0.35580    0.31120    1.000
    Al327    Al       0.90470    0.36160    0.22240    1.000
    P325     P        0.91120    0.37040    0.28110    1.000
    P326     P        0.86530    0.31620    0.22080    1.000
    P327     P        0.95400    0.35170    0.18830    1.000
    O1513    O        0.91910    0.37390    0.25040    1.000
    O1514    O        0.88590    0.38730    0.28700    1.000
    O1515    O        0.89830    0.34090    0.28130    1.000
    O1516    O        0.93410    0.37120    0.29880    1.000
    O1517    O        0.86490    0.30930    0.25320    1.000
    O1518    O        0.86540    0.29710    0.19960    1.000
    O1519    O        0.84270    0.33650    0.21810    1.000
    O1520    O        0.97170    0.33680    0.28590    1.000
    O1521    O        0.94460    0.33040    0.16780    1.000
    O1522    O        0.97340    0.38200    0.33000    1.000
    O1523    O        0.89350    0.32950    0.21710    1.000
    O1524    O        0.92660    0.36610    0.19960    1.000
    O1525    O        0.96950    0.34130    0.21170    1.000
    O1526    O        0.97210    0.37250    0.17830    1.000
    Al328    Al       0.86620    0.82990    0.78050    1.000
    Al329    Al       0.96160    0.85580    0.81120    1.000
    Al330    Al       0.90470    0.86160    0.72240    1.000
    P328     P        0.91120    0.87040    0.78110    1.000
    P329     P        0.86530    0.81620    0.72080    1.000
    P330     P        0.95400    0.85170    0.68830    1.000
    O1527    O        0.91910    0.87390    0.75040    1.000
    O1528    O        0.88590    0.88730    0.78700    1.000
    O1529    O        0.89830    0.84090    0.78130    1.000
    O1530    O        0.93410    0.87120    0.79880    1.000
    O1531    O        0.86490    0.80930    0.75320    1.000
    O1532    O        0.86540    0.79710    0.69960    1.000
    O1533    O        0.84270    0.83650    0.71810    1.000
    O1534    O        0.97170    0.83680    0.78590    1.000
    O1535    O        0.94460    0.83040    0.66780    1.000
    O1536    O        0.97340    0.88200    0.83000    1.000
    O1537    O        0.89350    0.82950    0.71710    1.000
    O1538    O        0.92660    0.86610    0.69960    1.000
    O1539    O        0.96950    0.84130    0.71170    1.000
    O1540    O        0.97210    0.87250    0.67830    1.000
    Al331    Al       0.36620    0.32990    0.78050    1.000
    Al332    Al       0.46160    0.35580    0.81120    1.000
    Al333    Al       0.40470    0.36160    0.72240    1.000
    P331     P        0.41120    0.37040    0.78110    1.000
    P332     P        0.36530    0.31620    0.72080    1.000
    P333     P        0.45400    0.35170    0.68830    1.000
    O1541    O        0.41910    0.37390    0.75040    1.000
    O1542    O        0.38590    0.38730    0.78700    1.000
    O1543    O        0.39830    0.34090    0.78130    1.000
    O1544    O        0.43410    0.37120    0.79880    1.000
    O1545    O        0.36490    0.30930    0.75320    1.000
    O1546    O        0.36540    0.29710    0.69960    1.000
    O1547    O        0.34270    0.33650    0.71810    1.000
    O1548    O        0.47170    0.33680    0.78590    1.000
    O1549    O        0.44460    0.33040    0.66780    1.000
    O1550    O        0.47340    0.38200    0.83000    1.000
    O1551    O        0.39350    0.32950    0.71710    1.000
    O1552    O        0.42660    0.36610    0.69960    1.000
    O1553    O        0.46950    0.34130    0.71170    1.000
    O1554    O        0.47210    0.37250    0.67830    1.000
    Al334    Al       0.36620    0.82990    0.28050    1.000
    Al335    Al       0.46160    0.85580    0.31120    1.000
    Al336    Al       0.40470    0.86160    0.22240    1.000
    P334     P        0.41120    0.87040    0.28110    1.000
    P335     P        0.36530    0.81620    0.22080    1.000
    P336     P        0.45400    0.85170    0.18830    1.000
    O1555    O        0.41910    0.87390    0.25040    1.000
    O1556    O        0.38590    0.88730    0.28700    1.000
    O1557    O        0.39830    0.84090    0.28130    1.000
    O1558    O        0.43410    0.87120    0.29880    1.000
    O1559    O        0.36490    0.80930    0.25320    1.000
    O1560    O        0.36540    0.79710    0.19960    1.000
    O1561    O        0.34270    0.83650    0.21810    1.000
    O1562    O        0.47170    0.83680    0.28590    1.000
    O1563    O        0.44460    0.83040    0.16780    1.000
    O1564    O        0.47340    0.88200    0.33000    1.000
    O1565    O        0.39350    0.82950    0.21710    1.000
    O1566    O        0.42660    0.86610    0.19960    1.000
    O1567    O        0.46950    0.84130    0.21170    1.000
    O1568    O        0.47210    0.87250    0.17830    1.000
    Al337    Al       0.71950    0.86620    0.67010    1.000
    Al338    Al       0.68880    0.96160    0.64420    1.000
    Al339    Al       0.77760    0.90470    0.63840    1.000
    P337     P        0.71890    0.91120    0.62960    1.000
    P338     P        0.77920    0.86530    0.68380    1.000
    P339     P        0.81170    0.95400    0.64830    1.000
    O1569    O        0.74960    0.91910    0.62610    1.000
    O1570    O        0.71300    0.88590    0.61270    1.000
    O1571    O        0.71870    0.89830    0.65910    1.000
    O1572    O        0.70120    0.93410    0.62880    1.000
    O1573    O        0.74680    0.86490    0.69070    1.000
    O1574    O        0.80040    0.86540    0.70290    1.000
    O1575    O        0.78190    0.84270    0.66350    1.000
    O1576    O        0.71410    0.97170    0.66320    1.000
    O1577    O        0.83220    0.94460    0.66960    1.000
    O1578    O        0.67000    0.97340    0.61800    1.000
    O1579    O        0.78290    0.89350    0.67050    1.000
    O1580    O        0.80040    0.92660    0.63390    1.000
    O1581    O        0.78830    0.96950    0.65870    1.000
    O1582    O        0.82170    0.97210    0.62750    1.000
    Al340    Al       0.71950    0.36620    0.17010    1.000
    Al341    Al       0.68880    0.46160    0.14420    1.000
    Al342    Al       0.77760    0.40470    0.13840    1.000
    P340     P        0.71890    0.41120    0.12960    1.000
    P341     P        0.77920    0.36530    0.18380    1.000
    P342     P        0.81170    0.45400    0.14830    1.000
    O1583    O        0.74960    0.41910    0.12610    1.000
    O1584    O        0.71300    0.38590    0.11270    1.000
    O1585    O        0.71870    0.39830    0.15910    1.000
    O1586    O        0.70120    0.43410    0.12880    1.000
    O1587    O        0.74680    0.36490    0.19070    1.000
    O1588    O        0.80040    0.36540    0.20290    1.000
    O1589    O        0.78190    0.34270    0.16350    1.000
    O1590    O        0.71410    0.47170    0.16320    1.000
    O1591    O        0.83220    0.44460    0.16960    1.000
    O1592    O        0.67000    0.47340    0.11800    1.000
    O1593    O        0.78290    0.39350    0.17050    1.000
    O1594    O        0.80040    0.42660    0.13390    1.000
    O1595    O        0.78830    0.46950    0.15870    1.000
    O1596    O        0.82170    0.47210    0.12750    1.000
    Al343    Al       0.21950    0.86620    0.17010    1.000
    Al344    Al       0.18880    0.96160    0.14420    1.000
    Al345    Al       0.27760    0.90470    0.13840    1.000
    P343     P        0.21890    0.91120    0.12960    1.000
    P344     P        0.27920    0.86530    0.18380    1.000
    P345     P        0.31170    0.95400    0.14830    1.000
    O1597    O        0.24960    0.91910    0.12610    1.000
    O1598    O        0.21300    0.88590    0.11270    1.000
    O1599    O        0.21870    0.89830    0.15910    1.000
    O1600    O        0.20120    0.93410    0.12880    1.000
    O1601    O        0.24680    0.86490    0.19070    1.000
    O1602    O        0.30040    0.86540    0.20290    1.000
    O1603    O        0.28190    0.84270    0.16350    1.000
    O1604    O        0.21410    0.97170    0.16320    1.000
    O1605    O        0.33220    0.94460    0.16960    1.000
    O1606    O        0.17000    0.97340    0.11800    1.000
    O1607    O        0.28290    0.89350    0.17050    1.000
    O1608    O        0.30040    0.92660    0.13390    1.000
    O1609    O        0.28830    0.96950    0.15870    1.000
    O1610    O        0.32170    0.97210    0.12750    1.000
    Al346    Al       0.21950    0.36620    0.67010    1.000
    Al347    Al       0.18880    0.46160    0.64420    1.000
    Al348    Al       0.27760    0.40470    0.63840    1.000
    P346     P        0.21890    0.41120    0.62960    1.000
    P347     P        0.27920    0.36530    0.68380    1.000
    P348     P        0.31170    0.45400    0.64830    1.000
    O1611    O        0.24960    0.41910    0.62610    1.000
    O1612    O        0.21300    0.38590    0.61270    1.000
    O1613    O        0.21870    0.39830    0.65910    1.000
    O1614    O        0.20120    0.43410    0.62880    1.000
    O1615    O        0.24680    0.36490    0.69070    1.000
    O1616    O        0.30040    0.36540    0.70290    1.000
    O1617    O        0.28190    0.34270    0.66350    1.000
    O1618    O        0.21410    0.47170    0.66320    1.000
    O1619    O        0.33220    0.44460    0.66960    1.000
    O1620    O        0.17000    0.47340    0.61800    1.000
    O1621    O        0.28290    0.39350    0.67050    1.000
    O1622    O        0.30040    0.42660    0.63390    1.000
    O1623    O        0.28830    0.46950    0.65870    1.000
    O1624    O        0.32170    0.47210    0.62750    1.000
    Al349    Al       0.71950    0.13380    0.32990    1.000
    Al350    Al       0.68880    0.03840    0.35580    1.000
    Al351    Al       0.77760    0.09530    0.36160    1.000
    P349     P        0.71890    0.08880    0.37040    1.000
    P350     P        0.77920    0.13470    0.31620    1.000
    P351     P        0.81170    0.04600    0.35170    1.000
    O1625    O        0.74960    0.08090    0.37390    1.000
    O1626    O        0.71300    0.11410    0.38730    1.000
    O1627    O        0.71870    0.10170    0.34090    1.000
    O1628    O        0.70120    0.06590    0.37120    1.000
    O1629    O        0.74680    0.13510    0.30930    1.000
    O1630    O        0.80040    0.13460    0.29710    1.000
    O1631    O        0.78190    0.15730    0.33650    1.000
    O1632    O        0.71410    0.02830    0.33680    1.000
    O1633    O        0.83220    0.05540    0.33040    1.000
    O1634    O        0.67000    0.02660    0.38200    1.000
    O1635    O        0.78290    0.10650    0.32950    1.000
    O1636    O        0.80040    0.07340    0.36610    1.000
    O1637    O        0.78830    0.03050    0.34130    1.000
    O1638    O        0.82170    0.02790    0.37250    1.000
    Al352    Al       0.71950    0.63380    0.82990    1.000
    Al353    Al       0.68880    0.53840    0.85580    1.000
    Al354    Al       0.77760    0.59530    0.86160    1.000
    P352     P        0.71890    0.58880    0.87040    1.000
    P353     P        0.77920    0.63470    0.81620    1.000
    P354     P        0.81170    0.54600    0.85170    1.000
    O1639    O        0.74960    0.58090    0.87390    1.000
    O1640    O        0.71300    0.61410    0.88730    1.000
    O1641    O        0.71870    0.60170    0.84090    1.000
    O1642    O        0.70120    0.56590    0.87120    1.000
    O1643    O        0.74680    0.63510    0.80930    1.000
    O1644    O        0.80040    0.63460    0.79710    1.000
    O1645    O        0.78190    0.65730    0.83650    1.000
    O1646    O        0.71410    0.52830    0.83680    1.000
    O1647    O        0.83220    0.55540    0.83040    1.000
    O1648    O        0.67000    0.52660    0.88200    1.000
    O1649    O        0.78290    0.60650    0.82950    1.000
    O1650    O        0.80040    0.57340    0.86610    1.000
    O1651    O        0.78830    0.53050    0.84130    1.000
    O1652    O        0.82170    0.52790    0.87250    1.000
    Al355    Al       0.21950    0.13380    0.82990    1.000
    Al356    Al       0.18880    0.03840    0.85580    1.000
    Al357    Al       0.27760    0.09530    0.86160    1.000
    P355     P        0.21890    0.08880    0.87040    1.000
    P356     P        0.27920    0.13470    0.81620    1.000
    P357     P        0.31170    0.04600    0.85170    1.000
    O1653    O        0.24960    0.08090    0.87390    1.000
    O1654    O        0.21300    0.11410    0.88730    1.000
    O1655    O        0.21870    0.10170    0.84090    1.000
    O1656    O        0.20120    0.06590    0.87120    1.000
    O1657    O        0.24680    0.13510    0.80930    1.000
    O1658    O        0.30040    0.13460    0.79710    1.000
    O1659    O        0.28190    0.15730    0.83650    1.000
    O1660    O        0.21410    0.02830    0.83680    1.000
    O1661    O        0.33220    0.05540    0.83040    1.000
    O1662    O        0.17000    0.02660    0.88200    1.000
    O1663    O        0.28290    0.10650    0.82950    1.000
    O1664    O        0.30040    0.07340    0.86610    1.000
    O1665    O        0.28830    0.03050    0.84130    1.000
    O1666    O        0.32170    0.02790    0.87250    1.000
    Al358    Al       0.21950    0.63380    0.32990    1.000
    Al359    Al       0.18880    0.53840    0.35580    1.000
    Al360    Al       0.27760    0.59530    0.36160    1.000
    P358     P        0.21890    0.58880    0.37040    1.000
    P359     P        0.27920    0.63470    0.31620    1.000
    P360     P        0.31170    0.54600    0.35170    1.000
    O1667    O        0.24960    0.58090    0.37390    1.000
    O1668    O        0.21300    0.61410    0.38730    1.000
    O1669    O        0.21870    0.60170    0.34090    1.000
    O1670    O        0.20120    0.56590    0.37120    1.000
    O1671    O        0.24680    0.63510    0.30930    1.000
    O1672    O        0.30040    0.63460    0.29710    1.000
    O1673    O        0.28190    0.65730    0.33650    1.000
    O1674    O        0.21410    0.52830    0.33680    1.000
    O1675    O        0.33220    0.55540    0.33040    1.000
    O1676    O        0.17000    0.52660    0.38200    1.000
    O1677    O        0.28290    0.60650    0.32950    1.000
    O1678    O        0.30040    0.57340    0.36610    1.000
    O1679    O        0.28830    0.53050    0.34130    1.000
    O1680    O        0.32170    0.52790    0.37250    1.000
    Al361    Al       0.28050    0.13380    0.67010    1.000
    Al362    Al       0.31120    0.03840    0.64420    1.000
    Al363    Al       0.22240    0.09530    0.63840    1.000
    P361     P        0.28110    0.08880    0.62960    1.000
    P362     P        0.22080    0.13470    0.68380    1.000
    P363     P        0.18830    0.04600    0.64830    1.000
    O1681    O        0.25040    0.08090    0.62610    1.000
    O1682    O        0.28700    0.11410    0.61270    1.000
    O1683    O        0.28130    0.10170    0.65910    1.000
    O1684    O        0.29880    0.06590    0.62880    1.000
    O1685    O        0.25320    0.13510    0.69070    1.000
    O1686    O        0.19960    0.13460    0.70290    1.000
    O1687    O        0.21810    0.15730    0.66350    1.000
    O1688    O        0.28590    0.02830    0.66320    1.000
    O1689    O        0.16780    0.05540    0.66960    1.000
    O1690    O        0.33000    0.02660    0.61800    1.000
    O1691    O        0.21710    0.10650    0.67050    1.000
    O1692    O        0.19960    0.07340    0.63390    1.000
    O1693    O        0.21170    0.03050    0.65870    1.000
    O1694    O        0.17830    0.02790    0.62750    1.000
    Al364    Al       0.28050    0.63380    0.17010    1.000
    Al365    Al       0.31120    0.53840    0.14420    1.000
    Al366    Al       0.22240    0.59530    0.13840    1.000
    P364     P        0.28110    0.58880    0.12960    1.000
    P365     P        0.22080    0.63470    0.18380    1.000
    P366     P        0.18830    0.54600    0.14830    1.000
    O1695    O        0.25040    0.58090    0.12610    1.000
    O1696    O        0.28700    0.61410    0.11270    1.000
    O1697    O        0.28130    0.60170    0.15910    1.000
    O1698    O        0.29880    0.56590    0.12880    1.000
    O1699    O        0.25320    0.63510    0.19070    1.000
    O1700    O        0.19960    0.63460    0.20290    1.000
    O1701    O        0.21810    0.65730    0.16350    1.000
    O1702    O        0.28590    0.52830    0.16320    1.000
    O1703    O        0.16780    0.55540    0.16960    1.000
    O1704    O        0.33000    0.52660    0.11800    1.000
    O1705    O        0.21710    0.60650    0.17050    1.000
    O1706    O        0.19960    0.57340    0.13390    1.000
    O1707    O        0.21170    0.53050    0.15870    1.000
    O1708    O        0.17830    0.52790    0.12750    1.000
    Al367    Al       0.78050    0.13380    0.17010    1.000
    Al368    Al       0.81120    0.03840    0.14420    1.000
    Al369    Al       0.72240    0.09530    0.13840    1.000
    P367     P        0.78110    0.08880    0.12960    1.000
    P368     P        0.72080    0.13470    0.18380    1.000
    P369     P        0.68830    0.04600    0.14830    1.000
    O1709    O        0.75040    0.08090    0.12610    1.000
    O1710    O        0.78700    0.11410    0.11270    1.000
    O1711    O        0.78130    0.10170    0.15910    1.000
    O1712    O        0.79880    0.06590    0.12880    1.000
    O1713    O        0.75320    0.13510    0.19070    1.000
    O1714    O        0.69960    0.13460    0.20290    1.000
    O1715    O        0.71810    0.15730    0.16350    1.000
    O1716    O        0.78590    0.02830    0.16320    1.000
    O1717    O        0.66780    0.05540    0.16960    1.000
    O1718    O        0.83000    0.02660    0.11800    1.000
    O1719    O        0.71710    0.10650    0.17050    1.000
    O1720    O        0.69960    0.07340    0.13390    1.000
    O1721    O        0.71170    0.03050    0.15870    1.000
    O1722    O        0.67830    0.02790    0.12750    1.000
    Al370    Al       0.78050    0.63380    0.67010    1.000
    Al371    Al       0.81120    0.53840    0.64420    1.000
    Al372    Al       0.72240    0.59530    0.63840    1.000
    P370     P        0.78110    0.58880    0.62960    1.000
    P371     P        0.72080    0.63470    0.68380    1.000
    P372     P        0.68830    0.54600    0.64830    1.000
    O1723    O        0.75040    0.58090    0.62610    1.000
    O1724    O        0.78700    0.61410    0.61270    1.000
    O1725    O        0.78130    0.60170    0.65910    1.000
    O1726    O        0.79880    0.56590    0.62880    1.000
    O1727    O        0.75320    0.63510    0.69070    1.000
    O1728    O        0.69960    0.63460    0.70290    1.000
    O1729    O        0.71810    0.65730    0.66350    1.000
    O1730    O        0.78590    0.52830    0.66320    1.000
    O1731    O        0.66780    0.55540    0.66960    1.000
    O1732    O        0.83000    0.52660    0.61800    1.000
    O1733    O        0.71710    0.60650    0.67050    1.000
    O1734    O        0.69960    0.57340    0.63390    1.000
    O1735    O        0.71170    0.53050    0.65870    1.000
    O1736    O        0.67830    0.52790    0.62750    1.000
    Al373    Al       0.28050    0.86620    0.32990    1.000
    Al374    Al       0.31120    0.96160    0.35580    1.000
    Al375    Al       0.22240    0.90470    0.36160    1.000
    P373     P        0.28110    0.91120    0.37040    1.000
    P374     P        0.22080    0.86530    0.31620    1.000
    P375     P        0.18830    0.95400    0.35170    1.000
    O1737    O        0.25040    0.91910    0.37390    1.000
    O1738    O        0.28700    0.88590    0.38730    1.000
    O1739    O        0.28130    0.89830    0.34090    1.000
    O1740    O        0.29880    0.93410    0.37120    1.000
    O1741    O        0.25320    0.86490    0.30930    1.000
    O1742    O        0.19960    0.86540    0.29710    1.000
    O1743    O        0.21810    0.84270    0.33650    1.000
    O1744    O        0.28590    0.97170    0.33680    1.000
    O1745    O        0.16780    0.94460    0.33040    1.000
    O1746    O        0.33000    0.97340    0.38200    1.000
    O1747    O        0.21710    0.89350    0.32950    1.000
    O1748    O        0.19960    0.92660    0.36610    1.000
    O1749    O        0.21170    0.96950    0.34130    1.000
    O1750    O        0.17830    0.97210    0.37250    1.000
    Al376    Al       0.28050    0.36620    0.82990    1.000
    Al377    Al       0.31120    0.46160    0.85580    1.000
    Al378    Al       0.22240    0.40470    0.86160    1.000
    P376     P        0.28110    0.41120    0.87040    1.000
    P377     P        0.22080    0.36530    0.81620    1.000
    P378     P        0.18830    0.45400    0.85170    1.000
    O1751    O        0.25040    0.41910    0.87390    1.000
    O1752    O        0.28700    0.38590    0.88730    1.000
    O1753    O        0.28130    0.39830    0.84090    1.000
    O1754    O        0.29880    0.43410    0.87120    1.000
    O1755    O        0.25320    0.36490    0.80930    1.000
    O1756    O        0.19960    0.36540    0.79710    1.000
    O1757    O        0.21810    0.34270    0.83650    1.000
    O1758    O        0.28590    0.47170    0.83680    1.000
    O1759    O        0.16780    0.44460    0.83040    1.000
    O1760    O        0.33000    0.47340    0.88200    1.000
    O1761    O        0.21710    0.39350    0.82950    1.000
    O1762    O        0.19960    0.42660    0.86610    1.000
    O1763    O        0.21170    0.46950    0.84130    1.000
    O1764    O        0.17830    0.47210    0.87250    1.000
    Al379    Al       0.78050    0.86620    0.82990    1.000
    Al380    Al       0.81120    0.96160    0.85580    1.000
    Al381    Al       0.72240    0.90470    0.86160    1.000
    P379     P        0.78110    0.91120    0.87040    1.000
    P380     P        0.72080    0.86530    0.81620    1.000
    P381     P        0.68830    0.95400    0.85170    1.000
    O1765    O        0.75040    0.91910    0.87390    1.000
    O1766    O        0.78700    0.88590    0.88730    1.000
    O1767    O        0.78130    0.89830    0.84090    1.000
    O1768    O        0.79880    0.93410    0.87120    1.000
    O1769    O        0.75320    0.86490    0.80930    1.000
    O1770    O        0.69960    0.86540    0.79710    1.000
    O1771    O        0.71810    0.84270    0.83650    1.000
    O1772    O        0.78590    0.97170    0.83680    1.000
    O1773    O        0.66780    0.94460    0.83040    1.000
    O1774    O        0.83000    0.97340    0.88200    1.000
    O1775    O        0.71710    0.89350    0.82950    1.000
    O1776    O        0.69960    0.92660    0.86610    1.000
    O1777    O        0.71170    0.96950    0.84130    1.000
    O1778    O        0.67830    0.97210    0.87250    1.000
    Al382    Al       0.78050    0.36620    0.32990    1.000
    Al383    Al       0.81120    0.46160    0.35580    1.000
    Al384    Al       0.72240    0.40470    0.36160    1.000
    P382     P        0.78110    0.41120    0.37040    1.000
    P383     P        0.72080    0.36530    0.31620    1.000
    P384     P        0.68830    0.45400    0.35170    1.000
    O1779    O        0.75040    0.41910    0.37390    1.000
    O1780    O        0.78700    0.38590    0.38730    1.000
    O1781    O        0.78130    0.39830    0.34090    1.000
    O1782    O        0.79880    0.43410    0.37120    1.000
    O1783    O        0.75320    0.36490    0.30930    1.000
    O1784    O        0.69960    0.36540    0.29710    1.000
    O1785    O        0.71810    0.34270    0.33650    1.000
    O1786    O        0.78590    0.47170    0.33680    1.000
    O1787    O        0.66780    0.44460    0.33040    1.000
    O1788    O        0.83000    0.47340    0.38200    1.000
    O1789    O        0.71710    0.39350    0.32950    1.000
    O1790    O        0.69960    0.42660    0.36610    1.000
    O1791    O        0.71170    0.46950    0.34130    1.000
    O1792    O        0.67830    0.47210    0.37250    1.000
    Al385    Al       0.67010    0.71950    0.86620    1.000
    Al386    Al       0.64420    0.68880    0.96160    1.000
    Al387    Al       0.63840    0.77760    0.90470    1.000
    P385     P        0.62960    0.71890    0.91120    1.000
    P386     P        0.68380    0.77920    0.86530    1.000
    P387     P        0.64830    0.81170    0.95400    1.000
    O1793    O        0.62610    0.74960    0.91910    1.000
    O1794    O        0.61270    0.71300    0.88590    1.000
    O1795    O        0.65910    0.71870    0.89830    1.000
    O1796    O        0.62880    0.70120    0.93410    1.000
    O1797    O        0.69070    0.74680    0.86490    1.000
    O1798    O        0.70290    0.80040    0.86540    1.000
    O1799    O        0.66350    0.78190    0.84270    1.000
    O1800    O        0.66320    0.71410    0.97170    1.000
    O1801    O        0.66960    0.83220    0.94460    1.000
    O1802    O        0.61800    0.67000    0.97340    1.000
    O1803    O        0.67050    0.78290    0.89350    1.000
    O1804    O        0.63390    0.80040    0.92660    1.000
    O1805    O        0.65870    0.78830    0.96950    1.000
    O1806    O        0.62750    0.82170    0.97210    1.000
    Al388    Al       0.67010    0.21950    0.36620    1.000
    Al389    Al       0.64420    0.18880    0.46160    1.000
    Al390    Al       0.63840    0.27760    0.40470    1.000
    P388     P        0.62960    0.21890    0.41120    1.000
    P389     P        0.68380    0.27920    0.36530    1.000
    P390     P        0.64830    0.31170    0.45400    1.000
    O1807    O        0.62610    0.24960    0.41910    1.000
    O1808    O        0.61270    0.21300    0.38590    1.000
    O1809    O        0.65910    0.21870    0.39830    1.000
    O1810    O        0.62880    0.20120    0.43410    1.000
    O1811    O        0.69070    0.24680    0.36490    1.000
    O1812    O        0.70290    0.30040    0.36540    1.000
    O1813    O        0.66350    0.28190    0.34270    1.000
    O1814    O        0.66320    0.21410    0.47170    1.000
    O1815    O        0.66960    0.33220    0.44460    1.000
    O1816    O        0.61800    0.17000    0.47340    1.000
    O1817    O        0.67050    0.28290    0.39350    1.000
    O1818    O        0.63390    0.30040    0.42660    1.000
    O1819    O        0.65870    0.28830    0.46950    1.000
    O1820    O        0.62750    0.32170    0.47210    1.000
    Al391    Al       0.17010    0.71950    0.36620    1.000
    Al392    Al       0.14420    0.68880    0.46160    1.000
    Al393    Al       0.13840    0.77760    0.40470    1.000
    P391     P        0.12960    0.71890    0.41120    1.000
    P392     P        0.18380    0.77920    0.36530    1.000
    P393     P        0.14830    0.81170    0.45400    1.000
    O1821    O        0.12610    0.74960    0.41910    1.000
    O1822    O        0.11270    0.71300    0.38590    1.000
    O1823    O        0.15910    0.71870    0.39830    1.000
    O1824    O        0.12880    0.70120    0.43410    1.000
    O1825    O        0.19070    0.74680    0.36490    1.000
    O1826    O        0.20290    0.80040    0.36540    1.000
    O1827    O        0.16350    0.78190    0.34270    1.000
    O1828    O        0.16320    0.71410    0.47170    1.000
    O1829    O        0.16960    0.83220    0.44460    1.000
    O1830    O        0.11800    0.67000    0.47340    1.000
    O1831    O        0.17050    0.78290    0.39350    1.000
    O1832    O        0.13390    0.80040    0.42660    1.000
    O1833    O        0.15870    0.78830    0.46950    1.000
    O1834    O        0.12750    0.82170    0.47210    1.000
    Al394    Al       0.17010    0.21950    0.86620    1.000
    Al395    Al       0.14420    0.18880    0.96160    1.000
    Al396    Al       0.13840    0.27760    0.90470    1.000
    P394     P        0.12960    0.21890    0.91120    1.000
    P395     P        0.18380    0.27920    0.86530    1.000
    P396     P        0.14830    0.31170    0.95400    1.000
    O1835    O        0.12610    0.24960    0.91910    1.000
    O1836    O        0.11270    0.21300    0.88590    1.000
    O1837    O        0.15910    0.21870    0.89830    1.000
    O1838    O        0.12880    0.20120    0.93410    1.000
    O1839    O        0.19070    0.24680    0.86490    1.000
    O1840    O        0.20290    0.30040    0.86540    1.000
    O1841    O        0.16350    0.28190    0.84270    1.000
    O1842    O        0.16320    0.21410    0.97170    1.000
    O1843    O        0.16960    0.33220    0.94460    1.000
    O1844    O        0.11800    0.17000    0.97340    1.000
    O1845    O        0.17050    0.28290    0.89350    1.000
    O1846    O        0.13390    0.30040    0.92660    1.000
    O1847    O        0.15870    0.28830    0.96950    1.000
    O1848    O        0.12750    0.32170    0.97210    1.000
    Al397    Al       0.32990    0.71950    0.13380    1.000
    Al398    Al       0.35580    0.68880    0.03840    1.000
    Al399    Al       0.36160    0.77760    0.09530    1.000
    P397     P        0.37040    0.71890    0.08880    1.000
    P398     P        0.31620    0.77920    0.13470    1.000
    P399     P        0.35170    0.81170    0.04600    1.000
    O1849    O        0.37390    0.74960    0.08090    1.000
    O1850    O        0.38730    0.71300    0.11410    1.000
    O1851    O        0.34090    0.71870    0.10170    1.000
    O1852    O        0.37120    0.70120    0.06590    1.000
    O1853    O        0.30930    0.74680    0.13510    1.000
    O1854    O        0.29710    0.80040    0.13460    1.000
    O1855    O        0.33650    0.78190    0.15730    1.000
    O1856    O        0.33680    0.71410    0.02830    1.000
    O1857    O        0.33040    0.83220    0.05540    1.000
    O1858    O        0.38200    0.67000    0.02660    1.000
    O1859    O        0.32950    0.78290    0.10650    1.000
    O1860    O        0.36610    0.80040    0.07340    1.000
    O1861    O        0.34130    0.78830    0.03050    1.000
    O1862    O        0.37250    0.82170    0.02790    1.000
    Al400    Al       0.32990    0.21950    0.63380    1.000
    Al401    Al       0.35580    0.18880    0.53840    1.000
    Al402    Al       0.36160    0.27760    0.59530    1.000
    P400     P        0.37040    0.21890    0.58880    1.000
    P401     P        0.31620    0.27920    0.63470    1.000
    P402     P        0.35170    0.31170    0.54600    1.000
    O1863    O        0.37390    0.24960    0.58090    1.000
    O1864    O        0.38730    0.21300    0.61410    1.000
    O1865    O        0.34090    0.21870    0.60170    1.000
    O1866    O        0.37120    0.20120    0.56590    1.000
    O1867    O        0.30930    0.24680    0.63510    1.000
    O1868    O        0.29710    0.30040    0.63460    1.000
    O1869    O        0.33650    0.28190    0.65730    1.000
    O1870    O        0.33680    0.21410    0.52830    1.000
    O1871    O        0.33040    0.33220    0.55540    1.000
    O1872    O        0.38200    0.17000    0.52660    1.000
    O1873    O        0.32950    0.28290    0.60650    1.000
    O1874    O        0.36610    0.30040    0.57340    1.000
    O1875    O        0.34130    0.28830    0.53050    1.000
    O1876    O        0.37250    0.32170    0.52790    1.000
    Al403    Al       0.82990    0.71950    0.63380    1.000
    Al404    Al       0.85580    0.68880    0.53840    1.000
    Al405    Al       0.86160    0.77760    0.59530    1.000
    P403     P        0.87040    0.71890    0.58880    1.000
    P404     P        0.81620    0.77920    0.63470    1.000
    P405     P        0.85170    0.81170    0.54600    1.000
    O1877    O        0.87390    0.74960    0.58090    1.000
    O1878    O        0.88730    0.71300    0.61410    1.000
    O1879    O        0.84090    0.71870    0.60170    1.000
    O1880    O        0.87120    0.70120    0.56590    1.000
    O1881    O        0.80930    0.74680    0.63510    1.000
    O1882    O        0.79710    0.80040    0.63460    1.000
    O1883    O        0.83650    0.78190    0.65730    1.000
    O1884    O        0.83680    0.71410    0.52830    1.000
    O1885    O        0.83040    0.83220    0.55540    1.000
    O1886    O        0.88200    0.67000    0.52660    1.000
    O1887    O        0.82950    0.78290    0.60650    1.000
    O1888    O        0.86610    0.80040    0.57340    1.000
    O1889    O        0.84130    0.78830    0.53050    1.000
    O1890    O        0.87250    0.82170    0.52790    1.000
    Al406    Al       0.82990    0.21950    0.13380    1.000
    Al407    Al       0.85580    0.18880    0.03840    1.000
    Al408    Al       0.86160    0.27760    0.09530    1.000
    P406     P        0.87040    0.21890    0.08880    1.000
    P407     P        0.81620    0.27920    0.13470    1.000
    P408     P        0.85170    0.31170    0.04600    1.000
    O1891    O        0.87390    0.24960    0.08090    1.000
    O1892    O        0.88730    0.21300    0.11410    1.000
    O1893    O        0.84090    0.21870    0.10170    1.000
    O1894    O        0.87120    0.20120    0.06590    1.000
    O1895    O        0.80930    0.24680    0.13510    1.000
    O1896    O        0.79710    0.30040    0.13460    1.000
    O1897    O        0.83650    0.28190    0.15730    1.000
    O1898    O        0.83680    0.21410    0.02830    1.000
    O1899    O        0.83040    0.33220    0.05540    1.000
    O1900    O        0.88200    0.17000    0.02660    1.000
    O1901    O        0.82950    0.28290    0.10650    1.000
    O1902    O        0.86610    0.30040    0.07340    1.000
    O1903    O        0.84130    0.28830    0.03050    1.000
    O1904    O        0.87250    0.32170    0.02790    1.000
    Al409    Al       0.67010    0.28050    0.13380    1.000
    Al410    Al       0.64420    0.31120    0.03840    1.000
    Al411    Al       0.63840    0.22240    0.09530    1.000
    P409     P        0.62960    0.28110    0.08880    1.000
    P410     P        0.68380    0.22080    0.13470    1.000
    P411     P        0.64830    0.18830    0.04600    1.000
    O1905    O        0.62610    0.25040    0.08090    1.000
    O1906    O        0.61270    0.28700    0.11410    1.000
    O1907    O        0.65910    0.28130    0.10170    1.000
    O1908    O        0.62880    0.29880    0.06590    1.000
    O1909    O        0.69070    0.25320    0.13510    1.000
    O1910    O        0.70290    0.19960    0.13460    1.000
    O1911    O        0.66350    0.21810    0.15730    1.000
    O1912    O        0.66320    0.28590    0.02830    1.000
    O1913    O        0.66960    0.16780    0.05540    1.000
    O1914    O        0.61800    0.33000    0.02660    1.000
    O1915    O        0.67050    0.21710    0.10650    1.000
    O1916    O        0.63390    0.19960    0.07340    1.000
    O1917    O        0.65870    0.21170    0.03050    1.000
    O1918    O        0.62750    0.17830    0.02790    1.000
    Al412    Al       0.67010    0.78050    0.63380    1.000
    Al413    Al       0.64420    0.81120    0.53840    1.000
    Al414    Al       0.63840    0.72240    0.59530    1.000
    P412     P        0.62960    0.78110    0.58880    1.000
    P413     P        0.68380    0.72080    0.63470    1.000
    P414     P        0.64830    0.68830    0.54600    1.000
    O1919    O        0.62610    0.75040    0.58090    1.000
    O1920    O        0.61270    0.78700    0.61410    1.000
    O1921    O        0.65910    0.78130    0.60170    1.000
    O1922    O        0.62880    0.79880    0.56590    1.000
    O1923    O        0.69070    0.75320    0.63510    1.000
    O1924    O        0.70290    0.69960    0.63460    1.000
    O1925    O        0.66350    0.71810    0.65730    1.000
    O1926    O        0.66320    0.78590    0.52830    1.000
    O1927    O        0.66960    0.66780    0.55540    1.000
    O1928    O        0.61800    0.83000    0.52660    1.000
    O1929    O        0.67050    0.71710    0.60650    1.000
    O1930    O        0.63390    0.69960    0.57340    1.000
    O1931    O        0.65870    0.71170    0.53050    1.000
    O1932    O        0.62750    0.67830    0.52790    1.000
    Al415    Al       0.17010    0.28050    0.63380    1.000
    Al416    Al       0.14420    0.31120    0.53840    1.000
    Al417    Al       0.13840    0.22240    0.59530    1.000
    P415     P        0.12960    0.28110    0.58880    1.000
    P416     P        0.18380    0.22080    0.63470    1.000
    P417     P        0.14830    0.18830    0.54600    1.000
    O1933    O        0.12610    0.25040    0.58090    1.000
    O1934    O        0.11270    0.28700    0.61410    1.000
    O1935    O        0.15910    0.28130    0.60170    1.000
    O1936    O        0.12880    0.29880    0.56590    1.000
    O1937    O        0.19070    0.25320    0.63510    1.000
    O1938    O        0.20290    0.19960    0.63460    1.000
    O1939    O        0.16350    0.21810    0.65730    1.000
    O1940    O        0.16320    0.28590    0.52830    1.000
    O1941    O        0.16960    0.16780    0.55540    1.000
    O1942    O        0.11800    0.33000    0.52660    1.000
    O1943    O        0.17050    0.21710    0.60650    1.000
    O1944    O        0.13390    0.19960    0.57340    1.000
    O1945    O        0.15870    0.21170    0.53050    1.000
    O1946    O        0.12750    0.17830    0.52790    1.000
    Al418    Al       0.17010    0.78050    0.13380    1.000
    Al419    Al       0.14420    0.81120    0.03840    1.000
    Al420    Al       0.13840    0.72240    0.09530    1.000
    P418     P        0.12960    0.78110    0.08880    1.000
    P419     P        0.18380    0.72080    0.13470    1.000
    P420     P        0.14830    0.68830    0.04600    1.000
    O1947    O        0.12610    0.75040    0.08090    1.000
    O1948    O        0.11270    0.78700    0.11410    1.000
    O1949    O        0.15910    0.78130    0.10170    1.000
    O1950    O        0.12880    0.79880    0.06590    1.000
    O1951    O        0.19070    0.75320    0.13510    1.000
    O1952    O        0.20290    0.69960    0.13460    1.000
    O1953    O        0.16350    0.71810    0.15730    1.000
    O1954    O        0.16320    0.78590    0.02830    1.000
    O1955    O        0.16960    0.66780    0.05540    1.000
    O1956    O        0.11800    0.83000    0.02660    1.000
    O1957    O        0.17050    0.71710    0.10650    1.000
    O1958    O        0.13390    0.69960    0.07340    1.000
    O1959    O        0.15870    0.71170    0.03050    1.000
    O1960    O        0.12750    0.67830    0.02790    1.000
    Al421    Al       0.32990    0.28050    0.86620    1.000
    Al422    Al       0.35580    0.31120    0.96160    1.000
    Al423    Al       0.36160    0.22240    0.90470    1.000
    P421     P        0.37040    0.28110    0.91120    1.000
    P422     P        0.31620    0.22080    0.86530    1.000
    P423     P        0.35170    0.18830    0.95400    1.000
    O1961    O        0.37390    0.25040    0.91910    1.000
    O1962    O        0.38730    0.28700    0.88590    1.000
    O1963    O        0.34090    0.28130    0.89830    1.000
    O1964    O        0.37120    0.29880    0.93410    1.000
    O1965    O        0.30930    0.25320    0.86490    1.000
    O1966    O        0.29710    0.19960    0.86540    1.000
    O1967    O        0.33650    0.21810    0.84270    1.000
    O1968    O        0.33680    0.28590    0.97170    1.000
    O1969    O        0.33040    0.16780    0.94460    1.000
    O1970    O        0.38200    0.33000    0.97340    1.000
    O1971    O        0.32950    0.21710    0.89350    1.000
    O1972    O        0.36610    0.19960    0.92660    1.000
    O1973    O        0.34130    0.21170    0.96950    1.000
    O1974    O        0.37250    0.17830    0.97210    1.000
    Al424    Al       0.32990    0.78050    0.36620    1.000
    Al425    Al       0.35580    0.81120    0.46160    1.000
    Al426    Al       0.36160    0.72240    0.40470    1.000
    P424     P        0.37040    0.78110    0.41120    1.000
    P425     P        0.31620    0.72080    0.36530    1.000
    P426     P        0.35170    0.68830    0.45400    1.000
    O1975    O        0.37390    0.75040    0.41910    1.000
    O1976    O        0.38730    0.78700    0.38590    1.000
    O1977    O        0.34090    0.78130    0.39830    1.000
    O1978    O        0.37120    0.79880    0.43410    1.000
    O1979    O        0.30930    0.75320    0.36490    1.000
    O1980    O        0.29710    0.69960    0.36540    1.000
    O1981    O        0.33650    0.71810    0.34270    1.000
    O1982    O        0.33680    0.78590    0.47170    1.000
    O1983    O        0.33040    0.66780    0.44460    1.000
    O1984    O        0.38200    0.83000    0.47340    1.000
    O1985    O        0.32950    0.71710    0.39350    1.000
    O1986    O        0.36610    0.69960    0.42660    1.000
    O1987    O        0.34130    0.71170    0.46950    1.000
    O1988    O        0.37250    0.67830    0.47210    1.000
    Al427    Al       0.82990    0.28050    0.36620    1.000
    Al428    Al       0.85580    0.31120    0.46160    1.000
    Al429    Al       0.86160    0.22240    0.40470    1.000
    P427     P        0.87040    0.28110    0.41120    1.000
    P428     P        0.81620    0.22080    0.36530    1.000
    P429     P        0.85170    0.18830    0.45400    1.000
    O1989    O        0.87390    0.25040    0.41910    1.000
    O1990    O        0.88730    0.28700    0.38590    1.000
    O1991    O        0.84090    0.28130    0.39830    1.000
    O1992    O        0.87120    0.29880    0.43410    1.000
    O1993    O        0.80930    0.25320    0.36490    1.000
    O1994    O        0.79710    0.19960    0.36540    1.000
    O1995    O        0.83650    0.21810    0.34270    1.000
    O1996    O        0.83680    0.28590    0.47170    1.000
    O1997    O        0.83040    0.16780    0.44460    1.000
    O1998    O        0.88200    0.33000    0.47340    1.000
    O1999    O        0.82950    0.21710    0.39350    1.000
    O2000    O        0.86610    0.19960    0.42660    1.000
    O2001    O        0.84130    0.21170    0.46950    1.000
    O2002    O        0.87250    0.17830    0.47210    1.000
    Al430    Al       0.82990    0.78050    0.86620    1.000
    Al431    Al       0.85580    0.81120    0.96160    1.000
    Al432    Al       0.86160    0.72240    0.90470    1.000
    P430     P        0.87040    0.78110    0.91120    1.000
    P431     P        0.81620    0.72080    0.86530    1.000
    P432     P        0.85170    0.68830    0.95400    1.000
    O2003    O        0.87390    0.75040    0.91910    1.000
    O2004    O        0.88730    0.78700    0.88590    1.000
    O2005    O        0.84090    0.78130    0.89830    1.000
    O2006    O        0.87120    0.79880    0.93410    1.000
    O2007    O        0.80930    0.75320    0.86490    1.000
    O2008    O        0.79710    0.69960    0.86540    1.000
    O2009    O        0.83650    0.71810    0.84270    1.000
    O2010    O        0.83680    0.78590    0.97170    1.000
    O2011    O        0.83040    0.66780    0.94460    1.000
    O2012    O        0.88200    0.83000    0.97340    1.000
    O2013    O        0.82950    0.71710    0.89350    1.000
    O2014    O        0.86610    0.69960    0.92660    1.000
    O2015    O        0.84130    0.71170    0.96950    1.000
    O2016    O        0.87250    0.67830    0.97210    1.000
    Al433    Al       0.17010    0.36620    0.78050    1.000
    Al434    Al       0.14420    0.46160    0.81120    1.000
    Al435    Al       0.13840    0.40470    0.72240    1.000
    P433     P        0.12960    0.41120    0.78110    1.000
    P434     P        0.18380    0.36530    0.72080    1.000
    P435     P        0.14830    0.45400    0.68830    1.000
    O2017    O        0.12610    0.41910    0.75040    1.000
    O2018    O        0.11270    0.38590    0.78700    1.000
    O2019    O        0.15910    0.39830    0.78130    1.000
    O2020    O        0.12880    0.43410    0.79880    1.000
    O2021    O        0.19070    0.36490    0.75320    1.000
    O2022    O        0.20290    0.36540    0.69960    1.000
    O2023    O        0.16350    0.34270    0.71810    1.000
    O2024    O        0.16320    0.47170    0.78590    1.000
    O2025    O        0.16960    0.44460    0.66780    1.000
    O2026    O        0.11800    0.47340    0.83000    1.000
    O2027    O        0.17050    0.39350    0.71710    1.000
    O2028    O        0.13390    0.42660    0.69960    1.000
    O2029    O        0.15870    0.46950    0.71170    1.000
    O2030    O        0.12750    0.47210    0.67830    1.000
    Al436    Al       0.17010    0.86620    0.28050    1.000
    Al437    Al       0.14420    0.96160    0.31120    1.000
    Al438    Al       0.13840    0.90470    0.22240    1.000
    P436     P        0.12960    0.91120    0.28110    1.000
    P437     P        0.18380    0.86530    0.22080    1.000
    P438     P        0.14830    0.95400    0.18830    1.000
    O2031    O        0.12610    0.91910    0.25040    1.000
    O2032    O        0.11270    0.88590    0.28700    1.000
    O2033    O        0.15910    0.89830    0.28130    1.000
    O2034    O        0.12880    0.93410    0.29880    1.000
    O2035    O        0.19070    0.86490    0.25320    1.000
    O2036    O        0.20290    0.86540    0.19960    1.000
    O2037    O        0.16350    0.84270    0.21810    1.000
    O2038    O        0.16320    0.97170    0.28590    1.000
    O2039    O        0.16960    0.94460    0.16780    1.000
    O2040    O        0.11800    0.97340    0.33000    1.000
    O2041    O        0.17050    0.89350    0.21710    1.000
    O2042    O        0.13390    0.92660    0.19960    1.000
    O2043    O        0.15870    0.96950    0.21170    1.000
    O2044    O        0.12750    0.97210    0.17830    1.000
    Al439    Al       0.67010    0.36620    0.28050    1.000
    Al440    Al       0.64420    0.46160    0.31120    1.000
    Al441    Al       0.63840    0.40470    0.22240    1.000
    P439     P        0.62960    0.41120    0.28110    1.000
    P440     P        0.68380    0.36530    0.22080    1.000
    P441     P        0.64830    0.45400    0.18830    1.000
    O2045    O        0.62610    0.41910    0.25040    1.000
    O2046    O        0.61270    0.38590    0.28700    1.000
    O2047    O        0.65910    0.39830    0.28130    1.000
    O2048    O        0.62880    0.43410    0.29880    1.000
    O2049    O        0.69070    0.36490    0.25320    1.000
    O2050    O        0.70290    0.36540    0.19960    1.000
    O2051    O        0.66350    0.34270    0.21810    1.000
    O2052    O        0.66320    0.47170    0.28590    1.000
    O2053    O        0.66960    0.44460    0.16780    1.000
    O2054    O        0.61800    0.47340    0.33000    1.000
    O2055    O        0.67050    0.39350    0.21710    1.000
    O2056    O        0.63390    0.42660    0.19960    1.000
    O2057    O        0.65870    0.46950    0.21170    1.000
    O2058    O        0.62750    0.47210    0.17830    1.000
    Al442    Al       0.67010    0.86620    0.78050    1.000
    Al443    Al       0.64420    0.96160    0.81120    1.000
    Al444    Al       0.63840    0.90470    0.72240    1.000
    P442     P        0.62960    0.91120    0.78110    1.000
    P443     P        0.68380    0.86530    0.72080    1.000
    P444     P        0.64830    0.95400    0.68830    1.000
    O2059    O        0.62610    0.91910    0.75040    1.000
    O2060    O        0.61270    0.88590    0.78700    1.000
    O2061    O        0.65910    0.89830    0.78130    1.000
    O2062    O        0.62880    0.93410    0.79880    1.000
    O2063    O        0.69070    0.86490    0.75320    1.000
    O2064    O        0.70290    0.86540    0.69960    1.000
    O2065    O        0.66350    0.84270    0.71810    1.000
    O2066    O        0.66320    0.97170    0.78590    1.000
    O2067    O        0.66960    0.94460    0.66780    1.000
    O2068    O        0.61800    0.97340    0.83000    1.000
    O2069    O        0.67050    0.89350    0.71710    1.000
    O2070    O        0.63390    0.92660    0.69960    1.000
    O2071    O        0.65870    0.96950    0.71170    1.000
    O2072    O        0.62750    0.97210    0.67830    1.000
    Al445    Al       0.82990    0.63380    0.78050    1.000
    Al446    Al       0.85580    0.53840    0.81120    1.000
    Al447    Al       0.86160    0.59530    0.72240    1.000
    P445     P        0.87040    0.58880    0.78110    1.000
    P446     P        0.81620    0.63470    0.72080    1.000
    P447     P        0.85170    0.54600    0.68830    1.000
    O2073    O        0.87390    0.58090    0.75040    1.000
    O2074    O        0.88730    0.61410    0.78700    1.000
    O2075    O        0.84090    0.60170    0.78130    1.000
    O2076    O        0.87120    0.56590    0.79880    1.000
    O2077    O        0.80930    0.63510    0.75320    1.000
    O2078    O        0.79710    0.63460    0.69960    1.000
    O2079    O        0.83650    0.65730    0.71810    1.000
    O2080    O        0.83680    0.52830    0.78590    1.000
    O2081    O        0.83040    0.55540    0.66780    1.000
    O2082    O        0.88200    0.52660    0.83000    1.000
    O2083    O        0.82950    0.60650    0.71710    1.000
    O2084    O        0.86610    0.57340    0.69960    1.000
    O2085    O        0.84130    0.53050    0.71170    1.000
    O2086    O        0.87250    0.52790    0.67830    1.000
    Al448    Al       0.82990    0.13380    0.28050    1.000
    Al449    Al       0.85580    0.03840    0.31120    1.000
    Al450    Al       0.86160    0.09530    0.22240    1.000
    P448     P        0.87040    0.08880    0.28110    1.000
    P449     P        0.81620    0.13470    0.22080    1.000
    P450     P        0.85170    0.04600    0.18830    1.000
    O2087    O        0.87390    0.08090    0.25040    1.000
    O2088    O        0.88730    0.11410    0.28700    1.000
    O2089    O        0.84090    0.10170    0.28130    1.000
    O2090    O        0.87120    0.06590    0.29880    1.000
    O2091    O        0.80930    0.13510    0.25320    1.000
    O2092    O        0.79710    0.13460    0.19960    1.000
    O2093    O        0.83650    0.15730    0.21810    1.000
    O2094    O        0.83680    0.02830    0.28590    1.000
    O2095    O        0.83040    0.05540    0.16780    1.000
    O2096    O        0.88200    0.02660    0.33000    1.000
    O2097    O        0.82950    0.10650    0.21710    1.000
    O2098    O        0.86610    0.07340    0.19960    1.000
    O2099    O        0.84130    0.03050    0.21170    1.000
    O2100    O        0.87250    0.02790    0.17830    1.000
    Al451    Al       0.32990    0.63380    0.28050    1.000
    Al452    Al       0.35580    0.53840    0.31120    1.000
    Al453    Al       0.36160    0.59530    0.22240    1.000
    P451     P        0.37040    0.58880    0.28110    1.000
    P452     P        0.31620    0.63470    0.22080    1.000
    P453     P        0.35170    0.54600    0.18830    1.000
    O2101    O        0.37390    0.58090    0.25040    1.000
    O2102    O        0.38730    0.61410    0.28700    1.000
    O2103    O        0.34090    0.60170    0.28130    1.000
    O2104    O        0.37120    0.56590    0.29880    1.000
    O2105    O        0.30930    0.63510    0.25320    1.000
    O2106    O        0.29710    0.63460    0.19960    1.000
    O2107    O        0.33650    0.65730    0.21810    1.000
    O2108    O        0.33680    0.52830    0.28590    1.000
    O2109    O        0.33040    0.55540    0.16780    1.000
    O2110    O        0.38200    0.52660    0.33000    1.000
    O2111    O        0.32950    0.60650    0.21710    1.000
    O2112    O        0.36610    0.57340    0.19960    1.000
    O2113    O        0.34130    0.53050    0.21170    1.000
    O2114    O        0.37250    0.52790    0.17830    1.000
    Al454    Al       0.32990    0.13380    0.78050    1.000
    Al455    Al       0.35580    0.03840    0.81120    1.000
    Al456    Al       0.36160    0.09530    0.72240    1.000
    P454     P        0.37040    0.08880    0.78110    1.000
    P455     P        0.31620    0.13470    0.72080    1.000
    P456     P        0.35170    0.04600    0.68830    1.000
    O2115    O        0.37390    0.08090    0.75040    1.000
    O2116    O        0.38730    0.11410    0.78700    1.000
    O2117    O        0.34090    0.10170    0.78130    1.000
    O2118    O        0.37120    0.06590    0.79880    1.000
    O2119    O        0.30930    0.13510    0.75320    1.000
    O2120    O        0.29710    0.13460    0.69960    1.000
    O2121    O        0.33650    0.15730    0.71810    1.000
    O2122    O        0.33680    0.02830    0.78590    1.000
    O2123    O        0.33040    0.05540    0.66780    1.000
    O2124    O        0.38200    0.02660    0.83000    1.000
    O2125    O        0.32950    0.10650    0.71710    1.000
    O2126    O        0.36610    0.07340    0.69960    1.000
    O2127    O        0.34130    0.03050    0.71170    1.000
    O2128    O        0.37250    0.02790    0.67830    1.000
    Al457    Al       0.17010    0.63380    0.21950    1.000
    Al458    Al       0.14420    0.53840    0.18880    1.000
    Al459    Al       0.13840    0.59530    0.27760    1.000
    P457     P        0.12960    0.58880    0.21890    1.000
    P458     P        0.18380    0.63470    0.27920    1.000
    P459     P        0.14830    0.54600    0.31170    1.000
    O2129    O        0.12610    0.58090    0.24960    1.000
    O2130    O        0.11270    0.61410    0.21300    1.000
    O2131    O        0.15910    0.60170    0.21870    1.000
    O2132    O        0.12880    0.56590    0.20120    1.000
    O2133    O        0.19070    0.63510    0.24680    1.000
    O2134    O        0.20290    0.63460    0.30040    1.000
    O2135    O        0.16350    0.65730    0.28190    1.000
    O2136    O        0.16320    0.52830    0.21410    1.000
    O2137    O        0.16960    0.55540    0.33220    1.000
    O2138    O        0.11800    0.52660    0.17000    1.000
    O2139    O        0.17050    0.60650    0.28290    1.000
    O2140    O        0.13390    0.57340    0.30040    1.000
    O2141    O        0.15870    0.53050    0.28830    1.000
    O2142    O        0.12750    0.52790    0.32170    1.000
    Al460    Al       0.17010    0.13380    0.71950    1.000
    Al461    Al       0.14420    0.03840    0.68880    1.000
    Al462    Al       0.13840    0.09530    0.77760    1.000
    P460     P        0.12960    0.08880    0.71890    1.000
    P461     P        0.18380    0.13470    0.77920    1.000
    P462     P        0.14830    0.04600    0.81170    1.000
    O2143    O        0.12610    0.08090    0.74960    1.000
    O2144    O        0.11270    0.11410    0.71300    1.000
    O2145    O        0.15910    0.10170    0.71870    1.000
    O2146    O        0.12880    0.06590    0.70120    1.000
    O2147    O        0.19070    0.13510    0.74680    1.000
    O2148    O        0.20290    0.13460    0.80040    1.000
    O2149    O        0.16350    0.15730    0.78190    1.000
    O2150    O        0.16320    0.02830    0.71410    1.000
    O2151    O        0.16960    0.05540    0.83220    1.000
    O2152    O        0.11800    0.02660    0.67000    1.000
    O2153    O        0.17050    0.10650    0.78290    1.000
    O2154    O        0.13390    0.07340    0.80040    1.000
    O2155    O        0.15870    0.03050    0.78830    1.000
    O2156    O        0.12750    0.02790    0.82170    1.000
    Al463    Al       0.67010    0.63380    0.71950    1.000
    Al464    Al       0.64420    0.53840    0.68880    1.000
    Al465    Al       0.63840    0.59530    0.77760    1.000
    P463     P        0.62960    0.58880    0.71890    1.000
    P464     P        0.68380    0.63470    0.77920    1.000
    P465     P        0.64830    0.54600    0.81170    1.000
    O2157    O        0.62610    0.58090    0.74960    1.000
    O2158    O        0.61270    0.61410    0.71300    1.000
    O2159    O        0.65910    0.60170    0.71870    1.000
    O2160    O        0.62880    0.56590    0.70120    1.000
    O2161    O        0.69070    0.63510    0.74680    1.000
    O2162    O        0.70290    0.63460    0.80040    1.000
    O2163    O        0.66350    0.65730    0.78190    1.000
    O2164    O        0.66320    0.52830    0.71410    1.000
    O2165    O        0.66960    0.55540    0.83220    1.000
    O2166    O        0.61800    0.52660    0.67000    1.000
    O2167    O        0.67050    0.60650    0.78290    1.000
    O2168    O        0.63390    0.57340    0.80040    1.000
    O2169    O        0.65870    0.53050    0.78830    1.000
    O2170    O        0.62750    0.52790    0.82170    1.000
    Al466    Al       0.67010    0.13380    0.21950    1.000
    Al467    Al       0.64420    0.03840    0.18880    1.000
    Al468    Al       0.63840    0.09530    0.27760    1.000
    P466     P        0.62960    0.08880    0.21890    1.000
    P467     P        0.68380    0.13470    0.27920    1.000
    P468     P        0.64830    0.04600    0.31170    1.000
    O2171    O        0.62610    0.08090    0.24960    1.000
    O2172    O        0.61270    0.11410    0.21300    1.000
    O2173    O        0.65910    0.10170    0.21870    1.000
    O2174    O        0.62880    0.06590    0.20120    1.000
    O2175    O        0.69070    0.13510    0.24680    1.000
    O2176    O        0.70290    0.13460    0.30040    1.000
    O2177    O        0.66350    0.15730    0.28190    1.000
    O2178    O        0.66320    0.02830    0.21410    1.000
    O2179    O        0.66960    0.05540    0.33220    1.000
    O2180    O        0.61800    0.02660    0.17000    1.000
    O2181    O        0.67050    0.10650    0.28290    1.000
    O2182    O        0.63390    0.07340    0.30040    1.000
    O2183    O        0.65870    0.03050    0.28830    1.000
    O2184    O        0.62750    0.02790    0.32170    1.000
    Al469    Al       0.82990    0.36620    0.21950    1.000
    Al470    Al       0.85580    0.46160    0.18880    1.000
    Al471    Al       0.86160    0.40470    0.27760    1.000
    P469     P        0.87040    0.41120    0.21890    1.000
    P470     P        0.81620    0.36530    0.27920    1.000
    P471     P        0.85170    0.45400    0.31170    1.000
    O2185    O        0.87390    0.41910    0.24960    1.000
    O2186    O        0.88730    0.38590    0.21300    1.000
    O2187    O        0.84090    0.39830    0.21870    1.000
    O2188    O        0.87120    0.43410    0.20120    1.000
    O2189    O        0.80930    0.36490    0.24680    1.000
    O2190    O        0.79710    0.36540    0.30040    1.000
    O2191    O        0.83650    0.34270    0.28190    1.000
    O2192    O        0.83680    0.47170    0.21410    1.000
    O2193    O        0.83040    0.44460    0.33220    1.000
    O2194    O        0.88200    0.47340    0.17000    1.000
    O2195    O        0.82950    0.39350    0.28290    1.000
    O2196    O        0.86610    0.42660    0.30040    1.000
    O2197    O        0.84130    0.46950    0.28830    1.000
    O2198    O        0.87250    0.47210    0.32170    1.000
    Al472    Al       0.82990    0.86620    0.71950    1.000
    Al473    Al       0.85580    0.96160    0.68880    1.000
    Al474    Al       0.86160    0.90470    0.77760    1.000
    P472     P        0.87040    0.91120    0.71890    1.000
    P473     P        0.81620    0.86530    0.77920    1.000
    P474     P        0.85170    0.95400    0.81170    1.000
    O2199    O        0.87390    0.91910    0.74960    1.000
    O2200    O        0.88730    0.88590    0.71300    1.000
    O2201    O        0.84090    0.89830    0.71870    1.000
    O2202    O        0.87120    0.93410    0.70120    1.000
    O2203    O        0.80930    0.86490    0.74680    1.000
    O2204    O        0.79710    0.86540    0.80040    1.000
    O2205    O        0.83650    0.84270    0.78190    1.000
    O2206    O        0.83680    0.97170    0.71410    1.000
    O2207    O        0.83040    0.94460    0.83220    1.000
    O2208    O        0.88200    0.97340    0.67000    1.000
    O2209    O        0.82950    0.89350    0.78290    1.000
    O2210    O        0.86610    0.92660    0.80040    1.000
    O2211    O        0.84130    0.96950    0.78830    1.000
    O2212    O        0.87250    0.97210    0.82170    1.000
    Al475    Al       0.32990    0.36620    0.71950    1.000
    Al476    Al       0.35580    0.46160    0.68880    1.000
    Al477    Al       0.36160    0.40470    0.77760    1.000
    P475     P        0.37040    0.41120    0.71890    1.000
    P476     P        0.31620    0.36530    0.77920    1.000
    P477     P        0.35170    0.45400    0.81170    1.000
    O2213    O        0.37390    0.41910    0.74960    1.000
    O2214    O        0.38730    0.38590    0.71300    1.000
    O2215    O        0.34090    0.39830    0.71870    1.000
    O2216    O        0.37120    0.43410    0.70120    1.000
    O2217    O        0.30930    0.36490    0.74680    1.000
    O2218    O        0.29710    0.36540    0.80040    1.000
    O2219    O        0.33650    0.34270    0.78190    1.000
    O2220    O        0.33680    0.47170    0.71410    1.000
    O2221    O        0.33040    0.44460    0.83220    1.000
    O2222    O        0.38200    0.47340    0.67000    1.000
    O2223    O        0.32950    0.39350    0.78290    1.000
    O2224    O        0.36610    0.42660    0.80040    1.000
    O2225    O        0.34130    0.46950    0.78830    1.000
    O2226    O        0.37250    0.47210    0.82170    1.000
    Al478    Al       0.32990    0.86620    0.21950    1.000
    Al479    Al       0.35580    0.96160    0.18880    1.000
    Al480    Al       0.36160    0.90470    0.27760    1.000
    P478     P        0.37040    0.91120    0.21890    1.000
    P479     P        0.31620    0.86530    0.27920    1.000
    P480     P        0.35170    0.95400    0.31170    1.000
    O2227    O        0.37390    0.91910    0.24960    1.000
    O2228    O        0.38730    0.88590    0.21300    1.000
    O2229    O        0.34090    0.89830    0.21870    1.000
    O2230    O        0.37120    0.93410    0.20120    1.000
    O2231    O        0.30930    0.86490    0.24680    1.000
    O2232    O        0.29710    0.86540    0.30040    1.000
    O2233    O        0.33650    0.84270    0.28190    1.000
    O2234    O        0.33680    0.97170    0.21410    1.000
    O2235    O        0.33040    0.94460    0.33220    1.000
    O2236    O        0.38200    0.97340    0.17000    1.000
    O2237    O        0.32950    0.89350    0.28290    1.000
    O2238    O        0.36610    0.92660    0.30040    1.000
    O2239    O        0.34130    0.96950    0.28830    1.000
    O2240    O        0.37250    0.97210    0.32170    1.000
    Al481    Al       0.36620    0.21950    0.82990    1.000
    Al482    Al       0.46160    0.18880    0.85580    1.000
    Al483    Al       0.40470    0.27760    0.86160    1.000
    P481     P        0.41120    0.21890    0.87040    1.000
    P482     P        0.36530    0.27920    0.81620    1.000
    P483     P        0.45400    0.31170    0.85170    1.000
    O2241    O        0.41910    0.24960    0.87390    1.000
    O2242    O        0.38590    0.21300    0.88730    1.000
    O2243    O        0.39830    0.21870    0.84090    1.000
    O2244    O        0.43410    0.20120    0.87120    1.000
    O2245    O        0.36490    0.24680    0.80930    1.000
    O2246    O        0.36540    0.30040    0.79710    1.000
    O2247    O        0.34270    0.28190    0.83650    1.000
    O2248    O        0.47170    0.21410    0.83680    1.000
    O2249    O        0.44460    0.33220    0.83040    1.000
    O2250    O        0.47340    0.17000    0.88200    1.000
    O2251    O        0.39350    0.28290    0.82950    1.000
    O2252    O        0.42660    0.30040    0.86610    1.000
    O2253    O        0.46950    0.28830    0.84130    1.000
    O2254    O        0.47210    0.32170    0.87250    1.000
    Al484    Al       0.36620    0.71950    0.32990    1.000
    Al485    Al       0.46160    0.68880    0.35580    1.000
    Al486    Al       0.40470    0.77760    0.36160    1.000
    P484     P        0.41120    0.71890    0.37040    1.000
    P485     P        0.36530    0.77920    0.31620    1.000
    P486     P        0.45400    0.81170    0.35170    1.000
    O2255    O        0.41910    0.74960    0.37390    1.000
    O2256    O        0.38590    0.71300    0.38730    1.000
    O2257    O        0.39830    0.71870    0.34090    1.000
    O2258    O        0.43410    0.70120    0.37120    1.000
    O2259    O        0.36490    0.74680    0.30930    1.000
    O2260    O        0.36540    0.80040    0.29710    1.000
    O2261    O        0.34270    0.78190    0.33650    1.000
    O2262    O        0.47170    0.71410    0.33680    1.000
    O2263    O        0.44460    0.83220    0.33040    1.000
    O2264    O        0.47340    0.67000    0.38200    1.000
    O2265    O        0.39350    0.78290    0.32950    1.000
    O2266    O        0.42660    0.80040    0.36610    1.000
    O2267    O        0.46950    0.78830    0.34130    1.000
    O2268    O        0.47210    0.82170    0.37250    1.000
    Al487    Al       0.86620    0.21950    0.32990    1.000
    Al488    Al       0.96160    0.18880    0.35580    1.000
    Al489    Al       0.90470    0.27760    0.36160    1.000
    P487     P        0.91120    0.21890    0.37040    1.000
    P488     P        0.86530    0.27920    0.31620    1.000
    P489     P        0.95400    0.31170    0.35170    1.000
    O2269    O        0.91910    0.24960    0.37390    1.000
    O2270    O        0.88590    0.21300    0.38730    1.000
    O2271    O        0.89830    0.21870    0.34090    1.000
    O2272    O        0.93410    0.20120    0.37120    1.000
    O2273    O        0.86490    0.24680    0.30930    1.000
    O2274    O        0.86540    0.30040    0.29710    1.000
    O2275    O        0.84270    0.28190    0.33650    1.000
    O2276    O        0.97170    0.21410    0.33680    1.000
    O2277    O        0.94460    0.33220    0.33040    1.000
    O2278    O        0.97340    0.17000    0.38200    1.000
    O2279    O        0.89350    0.28290    0.32950    1.000
    O2280    O        0.92660    0.30040    0.36610    1.000
    O2281    O        0.96950    0.28830    0.34130    1.000
    O2282    O        0.97210    0.32170    0.37250    1.000
    Al490    Al       0.86620    0.71950    0.82990    1.000
    Al491    Al       0.96160    0.68880    0.85580    1.000
    Al492    Al       0.90470    0.77760    0.86160    1.000
    P490     P        0.91120    0.71890    0.87040    1.000
    P491     P        0.86530    0.77920    0.81620    1.000
    P492     P        0.95400    0.81170    0.85170    1.000
    O2283    O        0.91910    0.74960    0.87390    1.000
    O2284    O        0.88590    0.71300    0.88730    1.000
    O2285    O        0.89830    0.71870    0.84090    1.000
    O2286    O        0.93410    0.70120    0.87120    1.000
    O2287    O        0.86490    0.74680    0.80930    1.000
    O2288    O        0.86540    0.80040    0.79710    1.000
    O2289    O        0.84270    0.78190    0.83650    1.000
    O2290    O        0.97170    0.71410    0.83680    1.000
    O2291    O        0.94460    0.83220    0.83040    1.000
    O2292    O        0.97340    0.67000    0.88200    1.000
    O2293    O        0.89350    0.78290    0.82950    1.000
    O2294    O        0.92660    0.80040    0.86610    1.000
    O2295    O        0.96950    0.78830    0.84130    1.000
    O2296    O        0.97210    0.82170    0.87250    1.000
    Al493    Al       0.63380    0.21950    0.17010    1.000
    Al494    Al       0.53840    0.18880    0.14420    1.000
    Al495    Al       0.59530    0.27760    0.13840    1.000
    P493     P        0.58880    0.21890    0.12960    1.000
    P494     P        0.63470    0.27920    0.18380    1.000
    P495     P        0.54600    0.31170    0.14830    1.000
    O2297    O        0.58090    0.24960    0.12610    1.000
    O2298    O        0.61410    0.21300    0.11270    1.000
    O2299    O        0.60170    0.21870    0.15910    1.000
    O2300    O        0.56590    0.20120    0.12880    1.000
    O2301    O        0.63510    0.24680    0.19070    1.000
    O2302    O        0.63460    0.30040    0.20290    1.000
    O2303    O        0.65730    0.28190    0.16350    1.000
    O2304    O        0.52830    0.21410    0.16320    1.000
    O2305    O        0.55540    0.33220    0.16960    1.000
    O2306    O        0.52660    0.17000    0.11800    1.000
    O2307    O        0.60650    0.28290    0.17050    1.000
    O2308    O        0.57340    0.30040    0.13390    1.000
    O2309    O        0.53050    0.28830    0.15870    1.000
    O2310    O        0.52790    0.32170    0.12750    1.000
    Al496    Al       0.63380    0.71950    0.67010    1.000
    Al497    Al       0.53840    0.68880    0.64420    1.000
    Al498    Al       0.59530    0.77760    0.63840    1.000
    P496     P        0.58880    0.71890    0.62960    1.000
    P497     P        0.63470    0.77920    0.68380    1.000
    P498     P        0.54600    0.81170    0.64830    1.000
    O2311    O        0.58090    0.74960    0.62610    1.000
    O2312    O        0.61410    0.71300    0.61270    1.000
    O2313    O        0.60170    0.71870    0.65910    1.000
    O2314    O        0.56590    0.70120    0.62880    1.000
    O2315    O        0.63510    0.74680    0.69070    1.000
    O2316    O        0.63460    0.80040    0.70290    1.000
    O2317    O        0.65730    0.78190    0.66350    1.000
    O2318    O        0.52830    0.71410    0.66320    1.000
    O2319    O        0.55540    0.83220    0.66960    1.000
    O2320    O        0.52660    0.67000    0.61800    1.000
    O2321    O        0.60650    0.78290    0.67050    1.000
    O2322    O        0.57340    0.80040    0.63390    1.000
    O2323    O        0.53050    0.78830    0.65870    1.000
    O2324    O        0.52790    0.82170    0.62750    1.000
    Al499    Al       0.13380    0.21950    0.67010    1.000
    Al500    Al       0.03840    0.18880    0.64420    1.000
    Al501    Al       0.09530    0.27760    0.63840    1.000
    P499     P        0.08880    0.21890    0.62960    1.000
    P500     P        0.13470    0.27920    0.68380    1.000
    P501     P        0.04600    0.31170    0.64830    1.000
    O2325    O        0.08090    0.24960    0.62610    1.000
    O2326    O        0.11410    0.21300    0.61270    1.000
    O2327    O        0.10170    0.21870    0.65910    1.000
    O2328    O        0.06590    0.20120    0.62880    1.000
    O2329    O        0.13510    0.24680    0.69070    1.000
    O2330    O        0.13460    0.30040    0.70290    1.000
    O2331    O        0.15730    0.28190    0.66350    1.000
    O2332    O        0.02830    0.21410    0.66320    1.000
    O2333    O        0.05540    0.33220    0.66960    1.000
    O2334    O        0.02660    0.17000    0.61800    1.000
    O2335    O        0.10650    0.28290    0.67050    1.000
    O2336    O        0.07340    0.30040    0.63390    1.000
    O2337    O        0.03050    0.28830    0.65870    1.000
    O2338    O        0.02790    0.32170    0.62750    1.000
    Al502    Al       0.13380    0.71950    0.17010    1.000
    Al503    Al       0.03840    0.68880    0.14420    1.000
    Al504    Al       0.09530    0.77760    0.13840    1.000
    P502     P        0.08880    0.71890    0.12960    1.000
    P503     P        0.13470    0.77920    0.18380    1.000
    P504     P        0.04600    0.81170    0.14830    1.000
    O2339    O        0.08090    0.74960    0.12610    1.000
    O2340    O        0.11410    0.71300    0.11270    1.000
    O2341    O        0.10170    0.71870    0.15910    1.000
    O2342    O        0.06590    0.70120    0.12880    1.000
    O2343    O        0.13510    0.74680    0.19070    1.000
    O2344    O        0.13460    0.80040    0.20290    1.000
    O2345    O        0.15730    0.78190    0.16350    1.000
    O2346    O        0.02830    0.71410    0.16320    1.000
    O2347    O        0.05540    0.83220    0.16960    1.000
    O2348    O        0.02660    0.67000    0.11800    1.000
    O2349    O        0.10650    0.78290    0.17050    1.000
    O2350    O        0.07340    0.80040    0.13390    1.000
    O2351    O        0.03050    0.78830    0.15870    1.000
    O2352    O        0.02790    0.82170    0.12750    1.000
    Al505    Al       0.63380    0.78050    0.82990    1.000
    Al506    Al       0.53840    0.81120    0.85580    1.000
    Al507    Al       0.59530    0.72240    0.86160    1.000
    P505     P        0.58880    0.78110    0.87040    1.000
    P506     P        0.63470    0.72080    0.81620    1.000
    P507     P        0.54600    0.68830    0.85170    1.000
    O2353    O        0.58090    0.75040    0.87390    1.000
    O2354    O        0.61410    0.78700    0.88730    1.000
    O2355    O        0.60170    0.78130    0.84090    1.000
    O2356    O        0.56590    0.79880    0.87120    1.000
    O2357    O        0.63510    0.75320    0.80930    1.000
    O2358    O        0.63460    0.69960    0.79710    1.000
    O2359    O        0.65730    0.71810    0.83650    1.000
    O2360    O        0.52830    0.78590    0.83680    1.000
    O2361    O        0.55540    0.66780    0.83040    1.000
    O2362    O        0.52660    0.83000    0.88200    1.000
    O2363    O        0.60650    0.71710    0.82950    1.000
    O2364    O        0.57340    0.69960    0.86610    1.000
    O2365    O        0.53050    0.71170    0.84130    1.000
    O2366    O        0.52790    0.67830    0.87250    1.000
    Al508    Al       0.63380    0.28050    0.32990    1.000
    Al509    Al       0.53840    0.31120    0.35580    1.000
    Al510    Al       0.59530    0.22240    0.36160    1.000
    P508     P        0.58880    0.28110    0.37040    1.000
    P509     P        0.63470    0.22080    0.31620    1.000
    P510     P        0.54600    0.18830    0.35170    1.000
    O2367    O        0.58090    0.25040    0.37390    1.000
    O2368    O        0.61410    0.28700    0.38730    1.000
    O2369    O        0.60170    0.28130    0.34090    1.000
    O2370    O        0.56590    0.29880    0.37120    1.000
    O2371    O        0.63510    0.25320    0.30930    1.000
    O2372    O        0.63460    0.19960    0.29710    1.000
    O2373    O        0.65730    0.21810    0.33650    1.000
    O2374    O        0.52830    0.28590    0.33680    1.000
    O2375    O        0.55540    0.16780    0.33040    1.000
    O2376    O        0.52660    0.33000    0.38200    1.000
    O2377    O        0.60650    0.21710    0.32950    1.000
    O2378    O        0.57340    0.19960    0.36610    1.000
    O2379    O        0.53050    0.21170    0.34130    1.000
    O2380    O        0.52790    0.17830    0.37250    1.000
    Al511    Al       0.13380    0.78050    0.32990    1.000
    Al512    Al       0.03840    0.81120    0.35580    1.000
    Al513    Al       0.09530    0.72240    0.36160    1.000
    P511     P        0.08880    0.78110    0.37040    1.000
    P512     P        0.13470    0.72080    0.31620    1.000
    P513     P        0.04600    0.68830    0.35170    1.000
    O2381    O        0.08090    0.75040    0.37390    1.000
    O2382    O        0.11410    0.78700    0.38730    1.000
    O2383    O        0.10170    0.78130    0.34090    1.000
    O2384    O        0.06590    0.79880    0.37120    1.000
    O2385    O        0.13510    0.75320    0.30930    1.000
    O2386    O        0.13460    0.69960    0.29710    1.000
    O2387    O        0.15730    0.71810    0.33650    1.000
    O2388    O        0.02830    0.78590    0.33680    1.000
    O2389    O        0.05540    0.66780    0.33040    1.000
    O2390    O        0.02660    0.83000    0.38200    1.000
    O2391    O        0.10650    0.71710    0.32950    1.000
    O2392    O        0.07340    0.69960    0.36610    1.000
    O2393    O        0.03050    0.71170    0.34130    1.000
    O2394    O        0.02790    0.67830    0.37250    1.000
    Al514    Al       0.13380    0.28050    0.82990    1.000
    Al515    Al       0.03840    0.31120    0.85580    1.000
    Al516    Al       0.09530    0.22240    0.86160    1.000
    P514     P        0.08880    0.28110    0.87040    1.000
    P515     P        0.13470    0.22080    0.81620    1.000
    P516     P        0.04600    0.18830    0.85170    1.000
    O2395    O        0.08090    0.25040    0.87390    1.000
    O2396    O        0.11410    0.28700    0.88730    1.000
    O2397    O        0.10170    0.28130    0.84090    1.000
    O2398    O        0.06590    0.29880    0.87120    1.000
    O2399    O        0.13510    0.25320    0.80930    1.000
    O2400    O        0.13460    0.19960    0.79710    1.000
    O2401    O        0.15730    0.21810    0.83650    1.000
    O2402    O        0.02830    0.28590    0.83680    1.000
    O2403    O        0.05540    0.16780    0.83040    1.000
    O2404    O        0.02660    0.33000    0.88200    1.000
    O2405    O        0.10650    0.21710    0.82950    1.000
    O2406    O        0.07340    0.19960    0.86610    1.000
    O2407    O        0.03050    0.21170    0.84130    1.000
    O2408    O        0.02790    0.17830    0.87250    1.000
    Al517    Al       0.36620    0.78050    0.17010    1.000
    Al518    Al       0.46160    0.81120    0.14420    1.000
    Al519    Al       0.40470    0.72240    0.13840    1.000
    P517     P        0.41120    0.78110    0.12960    1.000
    P518     P        0.36530    0.72080    0.18380    1.000
    P519     P        0.45400    0.68830    0.14830    1.000
    O2409    O        0.41910    0.75040    0.12610    1.000
    O2410    O        0.38590    0.78700    0.11270    1.000
    O2411    O        0.39830    0.78130    0.15910    1.000
    O2412    O        0.43410    0.79880    0.12880    1.000
    O2413    O        0.36490    0.75320    0.19070    1.000
    O2414    O        0.36540    0.69960    0.20290    1.000
    O2415    O        0.34270    0.71810    0.16350    1.000
    O2416    O        0.47170    0.78590    0.16320    1.000
    O2417    O        0.44460    0.66780    0.16960    1.000
    O2418    O        0.47340    0.83000    0.11800    1.000
    O2419    O        0.39350    0.71710    0.17050    1.000
    O2420    O        0.42660    0.69960    0.13390    1.000
    O2421    O        0.46950    0.71170    0.15870    1.000
    O2422    O        0.47210    0.67830    0.12750    1.000
    Al520    Al       0.36620    0.28050    0.67010    1.000
    Al521    Al       0.46160    0.31120    0.64420    1.000
    Al522    Al       0.40470    0.22240    0.63840    1.000
    P520     P        0.41120    0.28110    0.62960    1.000
    P521     P        0.36530    0.22080    0.68380    1.000
    P522     P        0.45400    0.18830    0.64830    1.000
    O2423    O        0.41910    0.25040    0.62610    1.000
    O2424    O        0.38590    0.28700    0.61270    1.000
    O2425    O        0.39830    0.28130    0.65910    1.000
    O2426    O        0.43410    0.29880    0.62880    1.000
    O2427    O        0.36490    0.25320    0.69070    1.000
    O2428    O        0.36540    0.19960    0.70290    1.000
    O2429    O        0.34270    0.21810    0.66350    1.000
    O2430    O        0.47170    0.28590    0.66320    1.000
    O2431    O        0.44460    0.16780    0.66960    1.000
    O2432    O        0.47340    0.33000    0.61800    1.000
    O2433    O        0.39350    0.21710    0.67050    1.000
    O2434    O        0.42660    0.19960    0.63390    1.000
    O2435    O        0.46950    0.21170    0.65870    1.000
    O2436    O        0.47210    0.17830    0.62750    1.000
    Al523    Al       0.86620    0.78050    0.67010    1.000
    Al524    Al       0.96160    0.81120    0.64420    1.000
    Al525    Al       0.90470    0.72240    0.63840    1.000
    P523     P        0.91120    0.78110    0.62960    1.000
    P524     P        0.86530    0.72080    0.68380    1.000
    P525     P        0.95400    0.68830    0.64830    1.000
    O2437    O        0.91910    0.75040    0.62610    1.000
    O2438    O        0.88590    0.78700    0.61270    1.000
    O2439    O        0.89830    0.78130    0.65910    1.000
    O2440    O        0.93410    0.79880    0.62880    1.000
    O2441    O        0.86490    0.75320    0.69070    1.000
    O2442    O        0.86540    0.69960    0.70290    1.000
    O2443    O        0.84270    0.71810    0.66350    1.000
    O2444    O        0.97170    0.78590    0.66320    1.000
    O2445    O        0.94460    0.66780    0.66960    1.000
    O2446    O        0.97340    0.83000    0.61800    1.000
    O2447    O        0.89350    0.71710    0.67050    1.000
    O2448    O        0.92660    0.69960    0.63390    1.000
    O2449    O        0.96950    0.71170    0.65870    1.000
    O2450    O        0.97210    0.67830    0.62750    1.000
    Al526    Al       0.86620    0.28050    0.17010    1.000
    Al527    Al       0.96160    0.31120    0.14420    1.000
    Al528    Al       0.90470    0.22240    0.13840    1.000
    P526     P        0.91120    0.28110    0.12960    1.000
    P527     P        0.86530    0.22080    0.18380    1.000
    P528     P        0.95400    0.18830    0.14830    1.000
    O2451    O        0.91910    0.25040    0.12610    1.000
    O2452    O        0.88590    0.28700    0.11270    1.000
    O2453    O        0.89830    0.28130    0.15910    1.000
    O2454    O        0.93410    0.29880    0.12880    1.000
    O2455    O        0.86490    0.25320    0.19070    1.000
    O2456    O        0.86540    0.19960    0.20290    1.000
    O2457    O        0.84270    0.21810    0.16350    1.000
    O2458    O        0.97170    0.28590    0.16320    1.000
    O2459    O        0.94460    0.16780    0.16960    1.000
    O2460    O        0.97340    0.33000    0.11800    1.000
    O2461    O        0.89350    0.21710    0.17050    1.000
    O2462    O        0.92660    0.19960    0.13390    1.000
    O2463    O        0.96950    0.21170    0.15870    1.000
    O2464    O        0.97210    0.17830    0.12750    1.000
    Al529    Al       0.21950    0.17010    0.63380    1.000
    Al530    Al       0.18880    0.14420    0.53840    1.000
    Al531    Al       0.27760    0.13840    0.59530    1.000
    P529     P        0.21890    0.12960    0.58880    1.000
    P530     P        0.27920    0.18380    0.63470    1.000
    P531     P        0.31170    0.14830    0.54600    1.000
    O2465    O        0.24960    0.12610    0.58090    1.000
    O2466    O        0.21300    0.11270    0.61410    1.000
    O2467    O        0.21870    0.15910    0.60170    1.000
    O2468    O        0.20120    0.12880    0.56590    1.000
    O2469    O        0.24680    0.19070    0.63510    1.000
    O2470    O        0.30040    0.20290    0.63460    1.000
    O2471    O        0.28190    0.16350    0.65730    1.000
    O2472    O        0.21410    0.16320    0.52830    1.000
    O2473    O        0.33220    0.16960    0.55540    1.000
    O2474    O        0.17000    0.11800    0.52660    1.000
    O2475    O        0.28290    0.17050    0.60650    1.000
    O2476    O        0.30040    0.13390    0.57340    1.000
    O2477    O        0.28830    0.15870    0.53050    1.000
    O2478    O        0.32170    0.12750    0.52790    1.000
    Al532    Al       0.21950    0.67010    0.13380    1.000
    Al533    Al       0.18880    0.64420    0.03840    1.000
    Al534    Al       0.27760    0.63840    0.09530    1.000
    P532     P        0.21890    0.62960    0.08880    1.000
    P533     P        0.27920    0.68380    0.13470    1.000
    P534     P        0.31170    0.64830    0.04600    1.000
    O2479    O        0.24960    0.62610    0.08090    1.000
    O2480    O        0.21300    0.61270    0.11410    1.000
    O2481    O        0.21870    0.65910    0.10170    1.000
    O2482    O        0.20120    0.62880    0.06590    1.000
    O2483    O        0.24680    0.69070    0.13510    1.000
    O2484    O        0.30040    0.70290    0.13460    1.000
    O2485    O        0.28190    0.66350    0.15730    1.000
    O2486    O        0.21410    0.66320    0.02830    1.000
    O2487    O        0.33220    0.66960    0.05540    1.000
    O2488    O        0.17000    0.61800    0.02660    1.000
    O2489    O        0.28290    0.67050    0.10650    1.000
    O2490    O        0.30040    0.63390    0.07340    1.000
    O2491    O        0.28830    0.65870    0.03050    1.000
    O2492    O        0.32170    0.62750    0.02790    1.000
    Al535    Al       0.71950    0.17010    0.13380    1.000
    Al536    Al       0.68880    0.14420    0.03840    1.000
    Al537    Al       0.77760    0.13840    0.09530    1.000
    P535     P        0.71890    0.12960    0.08880    1.000
    P536     P        0.77920    0.18380    0.13470    1.000
    P537     P        0.81170    0.14830    0.04600    1.000
    O2493    O        0.74960    0.12610    0.08090    1.000
    O2494    O        0.71300    0.11270    0.11410    1.000
    O2495    O        0.71870    0.15910    0.10170    1.000
    O2496    O        0.70120    0.12880    0.06590    1.000
    O2497    O        0.74680    0.19070    0.13510    1.000
    O2498    O        0.80040    0.20290    0.13460    1.000
    O2499    O        0.78190    0.16350    0.15730    1.000
    O2500    O        0.71410    0.16320    0.02830    1.000
    O2501    O        0.83220    0.16960    0.05540    1.000
    O2502    O        0.67000    0.11800    0.02660    1.000
    O2503    O        0.78290    0.17050    0.10650    1.000
    O2504    O        0.80040    0.13390    0.07340    1.000
    O2505    O        0.78830    0.15870    0.03050    1.000
    O2506    O        0.82170    0.12750    0.02790    1.000
    Al538    Al       0.71950    0.67010    0.63380    1.000
    Al539    Al       0.68880    0.64420    0.53840    1.000
    Al540    Al       0.77760    0.63840    0.59530    1.000
    P538     P        0.71890    0.62960    0.58880    1.000
    P539     P        0.77920    0.68380    0.63470    1.000
    P540     P        0.81170    0.64830    0.54600    1.000
    O2507    O        0.74960    0.62610    0.58090    1.000
    O2508    O        0.71300    0.61270    0.61410    1.000
    O2509    O        0.71870    0.65910    0.60170    1.000
    O2510    O        0.70120    0.62880    0.56590    1.000
    O2511    O        0.74680    0.69070    0.63510    1.000
    O2512    O        0.80040    0.70290    0.63460    1.000
    O2513    O        0.78190    0.66350    0.65730    1.000
    O2514    O        0.71410    0.66320    0.52830    1.000
    O2515    O        0.83220    0.66960    0.55540    1.000
    O2516    O        0.67000    0.61800    0.52660    1.000
    O2517    O        0.78290    0.67050    0.60650    1.000
    O2518    O        0.80040    0.63390    0.57340    1.000
    O2519    O        0.78830    0.65870    0.53050    1.000
    O2520    O        0.82170    0.62750    0.52790    1.000
    Al541    Al       0.21950    0.82990    0.36620    1.000
    Al542    Al       0.18880    0.85580    0.46160    1.000
    Al543    Al       0.27760    0.86160    0.40470    1.000
    P541     P        0.21890    0.87040    0.41120    1.000
    P542     P        0.27920    0.81620    0.36530    1.000
    P543     P        0.31170    0.85170    0.45400    1.000
    O2521    O        0.24960    0.87390    0.41910    1.000
    O2522    O        0.21300    0.88730    0.38590    1.000
    O2523    O        0.21870    0.84090    0.39830    1.000
    O2524    O        0.20120    0.87120    0.43410    1.000
    O2525    O        0.24680    0.80930    0.36490    1.000
    O2526    O        0.30040    0.79710    0.36540    1.000
    O2527    O        0.28190    0.83650    0.34270    1.000
    O2528    O        0.21410    0.83680    0.47170    1.000
    O2529    O        0.33220    0.83040    0.44460    1.000
    O2530    O        0.17000    0.88200    0.47340    1.000
    O2531    O        0.28290    0.82950    0.39350    1.000
    O2532    O        0.30040    0.86610    0.42660    1.000
    O2533    O        0.28830    0.84130    0.46950    1.000
    O2534    O        0.32170    0.87250    0.47210    1.000
    Al544    Al       0.21950    0.32990    0.86620    1.000
    Al545    Al       0.18880    0.35580    0.96160    1.000
    Al546    Al       0.27760    0.36160    0.90470    1.000
    P544     P        0.21890    0.37040    0.91120    1.000
    P545     P        0.27920    0.31620    0.86530    1.000
    P546     P        0.31170    0.35170    0.95400    1.000
    O2535    O        0.24960    0.37390    0.91910    1.000
    O2536    O        0.21300    0.38730    0.88590    1.000
    O2537    O        0.21870    0.34090    0.89830    1.000
    O2538    O        0.20120    0.37120    0.93410    1.000
    O2539    O        0.24680    0.30930    0.86490    1.000
    O2540    O        0.30040    0.29710    0.86540    1.000
    O2541    O        0.28190    0.33650    0.84270    1.000
    O2542    O        0.21410    0.33680    0.97170    1.000
    O2543    O        0.33220    0.33040    0.94460    1.000
    O2544    O        0.17000    0.38200    0.97340    1.000
    O2545    O        0.28290    0.32950    0.89350    1.000
    O2546    O        0.30040    0.36610    0.92660    1.000
    O2547    O        0.28830    0.34130    0.96950    1.000
    O2548    O        0.32170    0.37250    0.97210    1.000
    Al547    Al       0.71950    0.82990    0.86620    1.000
    Al548    Al       0.68880    0.85580    0.96160    1.000
    Al549    Al       0.77760    0.86160    0.90470    1.000
    P547     P        0.71890    0.87040    0.91120    1.000
    P548     P        0.77920    0.81620    0.86530    1.000
    P549     P        0.81170    0.85170    0.95400    1.000
    O2549    O        0.74960    0.87390    0.91910    1.000
    O2550    O        0.71300    0.88730    0.88590    1.000
    O2551    O        0.71870    0.84090    0.89830    1.000
    O2552    O        0.70120    0.87120    0.93410    1.000
    O2553    O        0.74680    0.80930    0.86490    1.000
    O2554    O        0.80040    0.79710    0.86540    1.000
    O2555    O        0.78190    0.83650    0.84270    1.000
    O2556    O        0.71410    0.83680    0.97170    1.000
    O2557    O        0.83220    0.83040    0.94460    1.000
    O2558    O        0.67000    0.88200    0.97340    1.000
    O2559    O        0.78290    0.82950    0.89350    1.000
    O2560    O        0.80040    0.86610    0.92660    1.000
    O2561    O        0.78830    0.84130    0.96950    1.000
    O2562    O        0.82170    0.87250    0.97210    1.000
    Al550    Al       0.71950    0.32990    0.36620    1.000
    Al551    Al       0.68880    0.35580    0.46160    1.000
    Al552    Al       0.77760    0.36160    0.40470    1.000
    P550     P        0.71890    0.37040    0.41120    1.000
    P551     P        0.77920    0.31620    0.36530    1.000
    P552     P        0.81170    0.35170    0.45400    1.000
    O2563    O        0.74960    0.37390    0.41910    1.000
    O2564    O        0.71300    0.38730    0.38590    1.000
    O2565    O        0.71870    0.34090    0.39830    1.000
    O2566    O        0.70120    0.37120    0.43410    1.000
    O2567    O        0.74680    0.30930    0.36490    1.000
    O2568    O        0.80040    0.29710    0.36540    1.000
    O2569    O        0.78190    0.33650    0.34270    1.000
    O2570    O        0.71410    0.33680    0.47170    1.000
    O2571    O        0.83220    0.33040    0.44460    1.000
    O2572    O        0.67000    0.38200    0.47340    1.000
    O2573    O        0.78290    0.32950    0.39350    1.000
    O2574    O        0.80040    0.36610    0.42660    1.000
    O2575    O        0.78830    0.34130    0.46950    1.000
    O2576    O        0.82170    0.37250    0.47210    1.000
    Al553    Al       0.78050    0.17010    0.36620    1.000
    Al554    Al       0.81120    0.14420    0.46160    1.000
    Al555    Al       0.72240    0.13840    0.40470    1.000
    P553     P        0.78110    0.12960    0.41120    1.000
    P554     P        0.72080    0.18380    0.36530    1.000
    P555     P        0.68830    0.14830    0.45400    1.000
    O2577    O        0.75040    0.12610    0.41910    1.000
    O2578    O        0.78700    0.11270    0.38590    1.000
    O2579    O        0.78130    0.15910    0.39830    1.000
    O2580    O        0.79880    0.12880    0.43410    1.000
    O2581    O        0.75320    0.19070    0.36490    1.000
    O2582    O        0.69960    0.20290    0.36540    1.000
    O2583    O        0.71810    0.16350    0.34270    1.000
    O2584    O        0.78590    0.16320    0.47170    1.000
    O2585    O        0.66780    0.16960    0.44460    1.000
    O2586    O        0.83000    0.11800    0.47340    1.000
    O2587    O        0.71710    0.17050    0.39350    1.000
    O2588    O        0.69960    0.13390    0.42660    1.000
    O2589    O        0.71170    0.15870    0.46950    1.000
    O2590    O        0.67830    0.12750    0.47210    1.000
    Al556    Al       0.78050    0.67010    0.86620    1.000
    Al557    Al       0.81120    0.64420    0.96160    1.000
    Al558    Al       0.72240    0.63840    0.90470    1.000
    P556     P        0.78110    0.62960    0.91120    1.000
    P557     P        0.72080    0.68380    0.86530    1.000
    P558     P        0.68830    0.64830    0.95400    1.000
    O2591    O        0.75040    0.62610    0.91910    1.000
    O2592    O        0.78700    0.61270    0.88590    1.000
    O2593    O        0.78130    0.65910    0.89830    1.000
    O2594    O        0.79880    0.62880    0.93410    1.000
    O2595    O        0.75320    0.69070    0.86490    1.000
    O2596    O        0.69960    0.70290    0.86540    1.000
    O2597    O        0.71810    0.66350    0.84270    1.000
    O2598    O        0.78590    0.66320    0.97170    1.000
    O2599    O        0.66780    0.66960    0.94460    1.000
    O2600    O        0.83000    0.61800    0.97340    1.000
    O2601    O        0.71710    0.67050    0.89350    1.000
    O2602    O        0.69960    0.63390    0.92660    1.000
    O2603    O        0.71170    0.65870    0.96950    1.000
    O2604    O        0.67830    0.62750    0.97210    1.000
    Al559    Al       0.28050    0.17010    0.86620    1.000
    Al560    Al       0.31120    0.14420    0.96160    1.000
    Al561    Al       0.22240    0.13840    0.90470    1.000
    P559     P        0.28110    0.12960    0.91120    1.000
    P560     P        0.22080    0.18380    0.86530    1.000
    P561     P        0.18830    0.14830    0.95400    1.000
    O2605    O        0.25040    0.12610    0.91910    1.000
    O2606    O        0.28700    0.11270    0.88590    1.000
    O2607    O        0.28130    0.15910    0.89830    1.000
    O2608    O        0.29880    0.12880    0.93410    1.000
    O2609    O        0.25320    0.19070    0.86490    1.000
    O2610    O        0.19960    0.20290    0.86540    1.000
    O2611    O        0.21810    0.16350    0.84270    1.000
    O2612    O        0.28590    0.16320    0.97170    1.000
    O2613    O        0.16780    0.16960    0.94460    1.000
    O2614    O        0.33000    0.11800    0.97340    1.000
    O2615    O        0.21710    0.17050    0.89350    1.000
    O2616    O        0.19960    0.13390    0.92660    1.000
    O2617    O        0.21170    0.15870    0.96950    1.000
    O2618    O        0.17830    0.12750    0.97210    1.000
    Al562    Al       0.28050    0.67010    0.36620    1.000
    Al563    Al       0.31120    0.64420    0.46160    1.000
    Al564    Al       0.22240    0.63840    0.40470    1.000
    P562     P        0.28110    0.62960    0.41120    1.000
    P563     P        0.22080    0.68380    0.36530    1.000
    P564     P        0.18830    0.64830    0.45400    1.000
    O2619    O        0.25040    0.62610    0.41910    1.000
    O2620    O        0.28700    0.61270    0.38590    1.000
    O2621    O        0.28130    0.65910    0.39830    1.000
    O2622    O        0.29880    0.62880    0.43410    1.000
    O2623    O        0.25320    0.69070    0.36490    1.000
    O2624    O        0.19960    0.70290    0.36540    1.000
    O2625    O        0.21810    0.66350    0.34270    1.000
    O2626    O        0.28590    0.66320    0.47170    1.000
    O2627    O        0.16780    0.66960    0.44460    1.000
    O2628    O        0.33000    0.61800    0.47340    1.000
    O2629    O        0.21710    0.67050    0.39350    1.000
    O2630    O        0.19960    0.63390    0.42660    1.000
    O2631    O        0.21170    0.65870    0.46950    1.000
    O2632    O        0.17830    0.62750    0.47210    1.000
    Al565    Al       0.78050    0.82990    0.63380    1.000
    Al566    Al       0.81120    0.85580    0.53840    1.000
    Al567    Al       0.72240    0.86160    0.59530    1.000
    P565     P        0.78110    0.87040    0.58880    1.000
    P566     P        0.72080    0.81620    0.63470    1.000
    P567     P        0.68830    0.85170    0.54600    1.000
    O2633    O        0.75040    0.87390    0.58090    1.000
    O2634    O        0.78700    0.88730    0.61410    1.000
    O2635    O        0.78130    0.84090    0.60170    1.000
    O2636    O        0.79880    0.87120    0.56590    1.000
    O2637    O        0.75320    0.80930    0.63510    1.000
    O2638    O        0.69960    0.79710    0.63460    1.000
    O2639    O        0.71810    0.83650    0.65730    1.000
    O2640    O        0.78590    0.83680    0.52830    1.000
    O2641    O        0.66780    0.83040    0.55540    1.000
    O2642    O        0.83000    0.88200    0.52660    1.000
    O2643    O        0.71710    0.82950    0.60650    1.000
    O2644    O        0.69960    0.86610    0.57340    1.000
    O2645    O        0.71170    0.84130    0.53050    1.000
    O2646    O        0.67830    0.87250    0.52790    1.000
    Al568    Al       0.78050    0.32990    0.13380    1.000
    Al569    Al       0.81120    0.35580    0.03840    1.000
    Al570    Al       0.72240    0.36160    0.09530    1.000
    P568     P        0.78110    0.37040    0.08880    1.000
    P569     P        0.72080    0.31620    0.13470    1.000
    P570     P        0.68830    0.35170    0.04600    1.000
    O2647    O        0.75040    0.37390    0.08090    1.000
    O2648    O        0.78700    0.38730    0.11410    1.000
    O2649    O        0.78130    0.34090    0.10170    1.000
    O2650    O        0.79880    0.37120    0.06590    1.000
    O2651    O        0.75320    0.30930    0.13510    1.000
    O2652    O        0.69960    0.29710    0.13460    1.000
    O2653    O        0.71810    0.33650    0.15730    1.000
    O2654    O        0.78590    0.33680    0.02830    1.000
    O2655    O        0.66780    0.33040    0.05540    1.000
    O2656    O        0.83000    0.38200    0.02660    1.000
    O2657    O        0.71710    0.32950    0.10650    1.000
    O2658    O        0.69960    0.36610    0.07340    1.000
    O2659    O        0.71170    0.34130    0.03050    1.000
    O2660    O        0.67830    0.37250    0.02790    1.000
    Al571    Al       0.28050    0.82990    0.13380    1.000
    Al572    Al       0.31120    0.85580    0.03840    1.000
    Al573    Al       0.22240    0.86160    0.09530    1.000
    P571     P        0.28110    0.87040    0.08880    1.000
    P572     P        0.22080    0.81620    0.13470    1.000
    P573     P        0.18830    0.85170    0.04600    1.000
    O2661    O        0.25040    0.87390    0.08090    1.000
    O2662    O        0.28700    0.88730    0.11410    1.000
    O2663    O        0.28130    0.84090    0.10170    1.000
    O2664    O        0.29880    0.87120    0.06590    1.000
    O2665    O        0.25320    0.80930    0.13510    1.000
    O2666    O        0.19960    0.79710    0.13460    1.000
    O2667    O        0.21810    0.83650    0.15730    1.000
    O2668    O        0.28590    0.83680    0.02830    1.000
    O2669    O        0.16780    0.83040    0.05540    1.000
    O2670    O        0.33000    0.88200    0.02660    1.000
    O2671    O        0.21710    0.82950    0.10650    1.000
    O2672    O        0.19960    0.86610    0.07340    1.000
    O2673    O        0.21170    0.84130    0.03050    1.000
    O2674    O        0.17830    0.87250    0.02790    1.000
    Al574    Al       0.28050    0.32990    0.63380    1.000
    Al575    Al       0.31120    0.35580    0.53840    1.000
    Al576    Al       0.22240    0.36160    0.59530    1.000
    P574     P        0.28110    0.37040    0.58880    1.000
    P575     P        0.22080    0.31620    0.63470    1.000
    P576     P        0.18830    0.35170    0.54600    1.000
    O2675    O        0.25040    0.37390    0.58090    1.000
    O2676    O        0.28700    0.38730    0.61410    1.000
    O2677    O        0.28130    0.34090    0.60170    1.000
    O2678    O        0.29880    0.37120    0.56590    1.000
    O2679    O        0.25320    0.30930    0.63510    1.000
    O2680    O        0.19960    0.29710    0.63460    1.000
    O2681    O        0.21810    0.33650    0.65730    1.000
    O2682    O        0.28590    0.33680    0.52830    1.000
    O2683    O        0.16780    0.33040    0.55540    1.000
    O2684    O        0.33000    0.38200    0.52660    1.000
    O2685    O        0.21710    0.32950    0.60650    1.000
    O2686    O        0.19960    0.36610    0.57340    1.000
    O2687    O        0.21170    0.34130    0.53050    1.000
    O2688    O        0.17830    0.37250    0.52790    1.000
    Al577    Al       0.00000    0.32380    0.21670    1.000
    Al578    Al       0.00000    0.37960    0.15860    1.000
    P577     P        0.00000    0.32230    0.27780    1.000
    P578     P        0.00000    0.39000    0.34450    1.000
    O2689    O        0.00000    0.32110    0.24820    1.000
    O2690    O        0.00000    0.29410    0.29100    1.000
    O2691    O        0.00000    0.37440    0.37190    1.000
    O2692    O        0.00000    0.42020    0.35090    1.000
    Al579    Al       0.00000    0.82380    0.71670    1.000
    Al580    Al       0.00000    0.87960    0.65860    1.000
    P579     P        0.00000    0.82230    0.77780    1.000
    P580     P        0.00000    0.89000    0.84450    1.000
    O2693    O        0.00000    0.82110    0.74820    1.000
    O2694    O        0.00000    0.79410    0.79100    1.000
    O2695    O        0.00000    0.87440    0.87190    1.000
    O2696    O        0.00000    0.92020    0.85090    1.000
    Al581    Al       0.50000    0.32380    0.71670    1.000
    Al582    Al       0.50000    0.37960    0.65860    1.000
    P581     P        0.50000    0.32230    0.77780    1.000
    P582     P        0.50000    0.39000    0.84450    1.000
    O2697    O        0.50000    0.32110    0.74820    1.000
    O2698    O        0.50000    0.29410    0.79100    1.000
    O2699    O        0.50000    0.37440    0.87190    1.000
    O2700    O        0.50000    0.42020    0.85090    1.000
    Al583    Al       0.50000    0.82380    0.21670    1.000
    Al584    Al       0.50000    0.87960    0.15860    1.000
    P583     P        0.50000    0.82230    0.27780    1.000
    P584     P        0.50000    0.89000    0.34450    1.000
    O2701    O        0.50000    0.82110    0.24820    1.000
    O2702    O        0.50000    0.79410    0.29100    1.000
    O2703    O        0.50000    0.87440    0.37190    1.000
    O2704    O        0.50000    0.92020    0.35090    1.000
    Al585    Al       0.00000    0.67620    0.21670    1.000
    Al586    Al       0.00000    0.62040    0.15860    1.000
    P585     P        0.00000    0.67770    0.27780    1.000
    P586     P        0.00000    0.61000    0.34450    1.000
    O2705    O        0.00000    0.67890    0.24820    1.000
    O2706    O        0.00000    0.70590    0.29100    1.000
    O2707    O        0.00000    0.62560    0.37190    1.000
    O2708    O        0.00000    0.57980    0.35090    1.000
    Al587    Al       0.00000    0.17620    0.71670    1.000
    Al588    Al       0.00000    0.12040    0.65860    1.000
    P587     P        0.00000    0.17770    0.77780    1.000
    P588     P        0.00000    0.11000    0.84450    1.000
    O2709    O        0.00000    0.17890    0.74820    1.000
    O2710    O        0.00000    0.20590    0.79100    1.000
    O2711    O        0.00000    0.12560    0.87190    1.000
    O2712    O        0.00000    0.07980    0.85090    1.000
    Al589    Al       0.50000    0.67620    0.71670    1.000
    Al590    Al       0.50000    0.62040    0.65860    1.000
    P589     P        0.50000    0.67770    0.77780    1.000
    P590     P        0.50000    0.61000    0.84450    1.000
    O2713    O        0.50000    0.67890    0.74820    1.000
    O2714    O        0.50000    0.70590    0.79100    1.000
    O2715    O        0.50000    0.62560    0.87190    1.000
    O2716    O        0.50000    0.57980    0.85090    1.000
    Al591    Al       0.50000    0.17620    0.21670    1.000
    Al592    Al       0.50000    0.12040    0.15860    1.000
    P591     P        0.50000    0.17770    0.27780    1.000
    P592     P        0.50000    0.11000    0.34450    1.000
    O2717    O        0.50000    0.17890    0.24820    1.000
    O2718    O        0.50000    0.20590    0.29100    1.000
    O2719    O        0.50000    0.12560    0.37190    1.000
    O2720    O        0.50000    0.07980    0.35090    1.000
    Al593    Al       0.00000    0.32380    0.78330    1.000
    Al594    Al       0.00000    0.37960    0.84140    1.000
    P593     P        0.00000    0.32230    0.72220    1.000
    P594     P        0.00000    0.39000    0.65550    1.000
    O2721    O        0.00000    0.32110    0.75180    1.000
    O2722    O        0.00000    0.29410    0.70900    1.000
    O2723    O        0.00000    0.37440    0.62810    1.000
    O2724    O        0.00000    0.42020    0.64910    1.000
    Al595    Al       0.00000    0.82380    0.28330    1.000
    Al596    Al       0.00000    0.87960    0.34140    1.000
    P595     P        0.00000    0.82230    0.22220    1.000
    P596     P        0.00000    0.89000    0.15550    1.000
    O2725    O        0.00000    0.82110    0.25180    1.000
    O2726    O        0.00000    0.79410    0.20900    1.000
    O2727    O        0.00000    0.87440    0.12810    1.000
    O2728    O        0.00000    0.92020    0.14910    1.000
    Al597    Al       0.50000    0.32380    0.28330    1.000
    Al598    Al       0.50000    0.37960    0.34140    1.000
    P597     P        0.50000    0.32230    0.22220    1.000
    P598     P        0.50000    0.39000    0.15550    1.000
    O2729    O        0.50000    0.32110    0.25180    1.000
    O2730    O        0.50000    0.29410    0.20900    1.000
    O2731    O        0.50000    0.37440    0.12810    1.000
    O2732    O        0.50000    0.42020    0.14910    1.000
    Al599    Al       0.50000    0.82380    0.78330    1.000
    Al600    Al       0.50000    0.87960    0.84140    1.000
    P599     P        0.50000    0.82230    0.72220    1.000
    P600     P        0.50000    0.89000    0.65550    1.000
    O2733    O        0.50000    0.82110    0.75180    1.000
    O2734    O        0.50000    0.79410    0.70900    1.000
    O2735    O        0.50000    0.87440    0.62810    1.000
    O2736    O        0.50000    0.92020    0.64910    1.000
    Al601    Al       0.00000    0.67620    0.78330    1.000
    Al602    Al       0.00000    0.62040    0.84140    1.000
    P601     P        0.00000    0.67770    0.72220    1.000
    P602     P        0.00000    0.61000    0.65550    1.000
    O2737    O        0.00000    0.67890    0.75180    1.000
    O2738    O        0.00000    0.70590    0.70900    1.000
    O2739    O        0.00000    0.62560    0.62810    1.000
    O2740    O        0.00000    0.57980    0.64910    1.000
    Al603    Al       0.00000    0.17620    0.28330    1.000
    Al604    Al       0.00000    0.12040    0.34140    1.000
    P603     P        0.00000    0.17770    0.22220    1.000
    P604     P        0.00000    0.11000    0.15550    1.000
    O2741    O        0.00000    0.17890    0.25180    1.000
    O2742    O        0.00000    0.20590    0.20900    1.000
    O2743    O        0.00000    0.12560    0.12810    1.000
    O2744    O        0.00000    0.07980    0.14910    1.000
    Al605    Al       0.50000    0.67620    0.28330    1.000
    Al606    Al       0.50000    0.62040    0.34140    1.000
    P605     P        0.50000    0.67770    0.22220    1.000
    P606     P        0.50000    0.61000    0.15550    1.000
    O2745    O        0.50000    0.67890    0.25180    1.000
    O2746    O        0.50000    0.70590    0.20900    1.000
    O2747    O        0.50000    0.62560    0.12810    1.000
    O2748    O        0.50000    0.57980    0.14910    1.000
    Al607    Al       0.50000    0.17620    0.78330    1.000
    Al608    Al       0.50000    0.12040    0.84140    1.000
    P607     P        0.50000    0.17770    0.72220    1.000
    P608     P        0.50000    0.11000    0.65550    1.000
    O2749    O        0.50000    0.17890    0.75180    1.000
    O2750    O        0.50000    0.20590    0.70900    1.000
    O2751    O        0.50000    0.12560    0.62810    1.000
    O2752    O        0.50000    0.07980    0.64910    1.000
    Al609    Al       0.21670    0.00000    0.32380    1.000
    Al610    Al       0.15860    0.00000    0.37960    1.000
    P609     P        0.27780    0.00000    0.32230    1.000
    P610     P        0.34450    0.00000    0.39000    1.000
    O2753    O        0.24820    0.00000    0.32110    1.000
    O2754    O        0.29100    0.00000    0.29410    1.000
    O2755    O        0.37190    0.00000    0.37440    1.000
    O2756    O        0.35090    0.00000    0.42020    1.000
    Al611    Al       0.21670    0.50000    0.82380    1.000
    Al612    Al       0.15860    0.50000    0.87960    1.000
    P611     P        0.27780    0.50000    0.82230    1.000
    P612     P        0.34450    0.50000    0.89000    1.000
    O2757    O        0.24820    0.50000    0.82110    1.000
    O2758    O        0.29100    0.50000    0.79410    1.000
    O2759    O        0.37190    0.50000    0.87440    1.000
    O2760    O        0.35090    0.50000    0.92020    1.000
    Al613    Al       0.71670    0.00000    0.82380    1.000
    Al614    Al       0.65860    0.00000    0.87960    1.000
    P613     P        0.77780    0.00000    0.82230    1.000
    P614     P        0.84450    0.00000    0.89000    1.000
    O2761    O        0.74820    0.00000    0.82110    1.000
    O2762    O        0.79100    0.00000    0.79410    1.000
    O2763    O        0.87190    0.00000    0.87440    1.000
    O2764    O        0.85090    0.00000    0.92020    1.000
    Al615    Al       0.71670    0.50000    0.32380    1.000
    Al616    Al       0.65860    0.50000    0.37960    1.000
    P615     P        0.77780    0.50000    0.32230    1.000
    P616     P        0.84450    0.50000    0.39000    1.000
    O2765    O        0.74820    0.50000    0.32110    1.000
    O2766    O        0.79100    0.50000    0.29410    1.000
    O2767    O        0.87190    0.50000    0.37440    1.000
    O2768    O        0.85090    0.50000    0.42020    1.000
    Al617    Al       0.21670    0.00000    0.67620    1.000
    Al618    Al       0.15860    0.00000    0.62040    1.000
    P617     P        0.27780    0.00000    0.67770    1.000
    P618     P        0.34450    0.00000    0.61000    1.000
    O2769    O        0.24820    0.00000    0.67890    1.000
    O2770    O        0.29100    0.00000    0.70590    1.000
    O2771    O        0.37190    0.00000    0.62560    1.000
    O2772    O        0.35090    0.00000    0.57980    1.000
    Al619    Al       0.21670    0.50000    0.17620    1.000
    Al620    Al       0.15860    0.50000    0.12040    1.000
    P619     P        0.27780    0.50000    0.17770    1.000
    P620     P        0.34450    0.50000    0.11000    1.000
    O2773    O        0.24820    0.50000    0.17890    1.000
    O2774    O        0.29100    0.50000    0.20590    1.000
    O2775    O        0.37190    0.50000    0.12560    1.000
    O2776    O        0.35090    0.50000    0.07980    1.000
    Al621    Al       0.71670    0.00000    0.17620    1.000
    Al622    Al       0.65860    0.00000    0.12040    1.000
    P621     P        0.77780    0.00000    0.17770    1.000
    P622     P        0.84450    0.00000    0.11000    1.000
    O2777    O        0.74820    0.00000    0.17890    1.000
    O2778    O        0.79100    0.00000    0.20590    1.000
    O2779    O        0.87190    0.00000    0.12560    1.000
    O2780    O        0.85090    0.00000    0.07980    1.000
    Al623    Al       0.71670    0.50000    0.67620    1.000
    Al624    Al       0.65860    0.50000    0.62040    1.000
    P623     P        0.77780    0.50000    0.67770    1.000
    P624     P        0.84450    0.50000    0.61000    1.000
    O2781    O        0.74820    0.50000    0.67890    1.000
    O2782    O        0.79100    0.50000    0.70590    1.000
    O2783    O        0.87190    0.50000    0.62560    1.000
    O2784    O        0.85090    0.50000    0.57980    1.000
    Al625    Al       0.78330    0.00000    0.32380    1.000
    Al626    Al       0.84140    0.00000    0.37960    1.000
    P625     P        0.72220    0.00000    0.32230    1.000
    P626     P        0.65550    0.00000    0.39000    1.000
    O2785    O        0.75180    0.00000    0.32110    1.000
    O2786    O        0.70900    0.00000    0.29410    1.000
    O2787    O        0.62810    0.00000    0.37440    1.000
    O2788    O        0.64910    0.00000    0.42020    1.000
    Al627    Al       0.78330    0.50000    0.82380    1.000
    Al628    Al       0.84140    0.50000    0.87960    1.000
    P627     P        0.72220    0.50000    0.82230    1.000
    P628     P        0.65550    0.50000    0.89000    1.000
    O2789    O        0.75180    0.50000    0.82110    1.000
    O2790    O        0.70900    0.50000    0.79410    1.000
    O2791    O        0.62810    0.50000    0.87440    1.000
    O2792    O        0.64910    0.50000    0.92020    1.000
    Al629    Al       0.28330    0.00000    0.82380    1.000
    Al630    Al       0.34140    0.00000    0.87960    1.000
    P629     P        0.22220    0.00000    0.82230    1.000
    P630     P        0.15550    0.00000    0.89000    1.000
    O2793    O        0.25180    0.00000    0.82110    1.000
    O2794    O        0.20900    0.00000    0.79410    1.000
    O2795    O        0.12810    0.00000    0.87440    1.000
    O2796    O        0.14910    0.00000    0.92020    1.000
    Al631    Al       0.28330    0.50000    0.32380    1.000
    Al632    Al       0.34140    0.50000    0.37960    1.000
    P631     P        0.22220    0.50000    0.32230    1.000
    P632     P        0.15550    0.50000    0.39000    1.000
    O2797    O        0.25180    0.50000    0.32110    1.000
    O2798    O        0.20900    0.50000    0.29410    1.000
    O2799    O        0.12810    0.50000    0.37440    1.000
    O2800    O        0.14910    0.50000    0.42020    1.000
    Al633    Al       0.78330    0.00000    0.67620    1.000
    Al634    Al       0.84140    0.00000    0.62040    1.000
    P633     P        0.72220    0.00000    0.67770    1.000
    P634     P        0.65550    0.00000    0.61000    1.000
    O2801    O        0.75180    0.00000    0.67890    1.000
    O2802    O        0.70900    0.00000    0.70590    1.000
    O2803    O        0.62810    0.00000    0.62560    1.000
    O2804    O        0.64910    0.00000    0.57980    1.000
    Al635    Al       0.78330    0.50000    0.17620    1.000
    Al636    Al       0.84140    0.50000    0.12040    1.000
    P635     P        0.72220    0.50000    0.17770    1.000
    P636     P        0.65550    0.50000    0.11000    1.000
    O2805    O        0.75180    0.50000    0.17890    1.000
    O2806    O        0.70900    0.50000    0.20590    1.000
    O2807    O        0.62810    0.50000    0.12560    1.000
    O2808    O        0.64910    0.50000    0.07980    1.000
    Al637    Al       0.28330    0.00000    0.17620    1.000
    Al638    Al       0.34140    0.00000    0.12040    1.000
    P637     P        0.22220    0.00000    0.17770    1.000
    P638     P        0.15550    0.00000    0.11000    1.000
    O2809    O        0.25180    0.00000    0.17890    1.000
    O2810    O        0.20900    0.00000    0.20590    1.000
    O2811    O        0.12810    0.00000    0.12560    1.000
    O2812    O        0.14910    0.00000    0.07980    1.000
    Al639    Al       0.28330    0.50000    0.67620    1.000
    Al640    Al       0.34140    0.50000    0.62040    1.000
    P639     P        0.22220    0.50000    0.67770    1.000
    P640     P        0.15550    0.50000    0.61000    1.000
    O2813    O        0.25180    0.50000    0.67890    1.000
    O2814    O        0.20900    0.50000    0.70590    1.000
    O2815    O        0.12810    0.50000    0.62560    1.000
    O2816    O        0.14910    0.50000    0.57980    1.000
    Al641    Al       0.32380    0.21670    0.00000    1.000
    Al642    Al       0.37960    0.15860    0.00000    1.000
    P641     P        0.32230    0.27780    0.00000    1.000
    P642     P        0.39000    0.34450    0.00000    1.000
    O2817    O        0.32110    0.24820    0.00000    1.000
    O2818    O        0.29410    0.29100    0.00000    1.000
    O2819    O        0.37440    0.37190    0.00000    1.000
    O2820    O        0.42020    0.35090    0.00000    1.000
    Al643    Al       0.32380    0.71670    0.50000    1.000
    Al644    Al       0.37960    0.65860    0.50000    1.000
    P643     P        0.32230    0.77780    0.50000    1.000
    P644     P        0.39000    0.84450    0.50000    1.000
    O2821    O        0.32110    0.74820    0.50000    1.000
    O2822    O        0.29410    0.79100    0.50000    1.000
    O2823    O        0.37440    0.87190    0.50000    1.000
    O2824    O        0.42020    0.85090    0.50000    1.000
    Al645    Al       0.82380    0.21670    0.50000    1.000
    Al646    Al       0.87960    0.15860    0.50000    1.000
    P645     P        0.82230    0.27780    0.50000    1.000
    P646     P        0.89000    0.34450    0.50000    1.000
    O2825    O        0.82110    0.24820    0.50000    1.000
    O2826    O        0.79410    0.29100    0.50000    1.000
    O2827    O        0.87440    0.37190    0.50000    1.000
    O2828    O        0.92020    0.35090    0.50000    1.000
    Al647    Al       0.82380    0.71670    0.00000    1.000
    Al648    Al       0.87960    0.65860    0.00000    1.000
    P647     P        0.82230    0.77780    0.00000    1.000
    P648     P        0.89000    0.84450    0.00000    1.000
    O2829    O        0.82110    0.74820    0.00000    1.000
    O2830    O        0.79410    0.79100    0.00000    1.000
    O2831    O        0.87440    0.87190    0.00000    1.000
    O2832    O        0.92020    0.85090    0.00000    1.000
    Al649    Al       0.67620    0.21670    0.00000    1.000
    Al650    Al       0.62040    0.15860    0.00000    1.000
    P649     P        0.67770    0.27780    0.00000    1.000
    P650     P        0.61000    0.34450    0.00000    1.000
    O2833    O        0.67890    0.24820    0.00000    1.000
    O2834    O        0.70590    0.29100    0.00000    1.000
    O2835    O        0.62560    0.37190    0.00000    1.000
    O2836    O        0.57980    0.35090    0.00000    1.000
    Al651    Al       0.67620    0.71670    0.50000    1.000
    Al652    Al       0.62040    0.65860    0.50000    1.000
    P651     P        0.67770    0.77780    0.50000    1.000
    P652     P        0.61000    0.84450    0.50000    1.000
    O2837    O        0.67890    0.74820    0.50000    1.000
    O2838    O        0.70590    0.79100    0.50000    1.000
    O2839    O        0.62560    0.87190    0.50000    1.000
    O2840    O        0.57980    0.85090    0.50000    1.000
    Al653    Al       0.17620    0.21670    0.50000    1.000
    Al654    Al       0.12040    0.15860    0.50000    1.000
    P653     P        0.17770    0.27780    0.50000    1.000
    P654     P        0.11000    0.34450    0.50000    1.000
    O2841    O        0.17890    0.24820    0.50000    1.000
    O2842    O        0.20590    0.29100    0.50000    1.000
    O2843    O        0.12560    0.37190    0.50000    1.000
    O2844    O        0.07980    0.35090    0.50000    1.000
    Al655    Al       0.17620    0.71670    0.00000    1.000
    Al656    Al       0.12040    0.65860    0.00000    1.000
    P655     P        0.17770    0.77780    0.00000    1.000
    P656     P        0.11000    0.84450    0.00000    1.000
    O2845    O        0.17890    0.74820    0.00000    1.000
    O2846    O        0.20590    0.79100    0.00000    1.000
    O2847    O        0.12560    0.87190    0.00000    1.000
    O2848    O        0.07980    0.85090    0.00000    1.000
    Al657    Al       0.32380    0.78330    0.00000    1.000
    Al658    Al       0.37960    0.84140    0.00000    1.000
    P657     P        0.32230    0.72220    0.00000    1.000
    P658     P        0.39000    0.65550    0.00000    1.000
    O2849    O        0.32110    0.75180    0.00000    1.000
    O2850    O        0.29410    0.70900    0.00000    1.000
    O2851    O        0.37440    0.62810    0.00000    1.000
    O2852    O        0.42020    0.64910    0.00000    1.000
    Al659    Al       0.32380    0.28330    0.50000    1.000
    Al660    Al       0.37960    0.34140    0.50000    1.000
    P659     P        0.32230    0.22220    0.50000    1.000
    P660     P        0.39000    0.15550    0.50000    1.000
    O2853    O        0.32110    0.25180    0.50000    1.000
    O2854    O        0.29410    0.20900    0.50000    1.000
    O2855    O        0.37440    0.12810    0.50000    1.000
    O2856    O        0.42020    0.14910    0.50000    1.000
    Al661    Al       0.82380    0.78330    0.50000    1.000
    Al662    Al       0.87960    0.84140    0.50000    1.000
    P661     P        0.82230    0.72220    0.50000    1.000
    P662     P        0.89000    0.65550    0.50000    1.000
    O2857    O        0.82110    0.75180    0.50000    1.000
    O2858    O        0.79410    0.70900    0.50000    1.000
    O2859    O        0.87440    0.62810    0.50000    1.000
    O2860    O        0.92020    0.64910    0.50000    1.000
    Al663    Al       0.82380    0.28330    0.00000    1.000
    Al664    Al       0.87960    0.34140    0.00000    1.000
    P663     P        0.82230    0.22220    0.00000    1.000
    P664     P        0.89000    0.15550    0.00000    1.000
    O2861    O        0.82110    0.25180    0.00000    1.000
    O2862    O        0.79410    0.20900    0.00000    1.000
    O2863    O        0.87440    0.12810    0.00000    1.000
    O2864    O        0.92020    0.14910    0.00000    1.000
    Al665    Al       0.67620    0.78330    0.00000    1.000
    Al666    Al       0.62040    0.84140    0.00000    1.000
    P665     P        0.67770    0.72220    0.00000    1.000
    P666     P        0.61000    0.65550    0.00000    1.000
    O2865    O        0.67890    0.75180    0.00000    1.000
    O2866    O        0.70590    0.70900    0.00000    1.000
    O2867    O        0.62560    0.62810    0.00000    1.000
    O2868    O        0.57980    0.64910    0.00000    1.000
    Al667    Al       0.67620    0.28330    0.50000    1.000
    Al668    Al       0.62040    0.34140    0.50000    1.000
    P667     P        0.67770    0.22220    0.50000    1.000
    P668     P        0.61000    0.15550    0.50000    1.000
    O2869    O        0.67890    0.25180    0.50000    1.000
    O2870    O        0.70590    0.20900    0.50000    1.000
    O2871    O        0.62560    0.12810    0.50000    1.000
    O2872    O        0.57980    0.14910    0.50000    1.000
    Al669    Al       0.17620    0.78330    0.50000    1.000
    Al670    Al       0.12040    0.84140    0.50000    1.000
    P669     P        0.17770    0.72220    0.50000    1.000
    P670     P        0.11000    0.65550    0.50000    1.000
    O2873    O        0.17890    0.75180    0.50000    1.000
    O2874    O        0.20590    0.70900    0.50000    1.000
    O2875    O        0.12560    0.62810    0.50000    1.000
    O2876    O        0.07980    0.64910    0.50000    1.000
    Al671    Al       0.17620    0.28330    0.00000    1.000
    Al672    Al       0.12040    0.34140    0.00000    1.000
    P671     P        0.17770    0.22220    0.00000    1.000
    P672     P        0.11000    0.15550    0.00000    1.000
    O2877    O        0.17890    0.25180    0.00000    1.000
    O2878    O        0.20590    0.20900    0.00000    1.000
    O2879    O        0.12560    0.12810    0.00000    1.000
    O2880    O        0.07980    0.14910    0.00000    1.000
    Al673    Al       0.82380    0.50000    0.28330    1.000
    Al674    Al       0.87960    0.50000    0.34140    1.000
    P673     P        0.82230    0.50000    0.22220    1.000
    P674     P        0.89000    0.50000    0.15550    1.000
    O2881    O        0.82110    0.50000    0.25180    1.000
    O2882    O        0.79410    0.50000    0.20900    1.000
    O2883    O        0.87440    0.50000    0.12810    1.000
    O2884    O        0.92020    0.50000    0.14910    1.000
    Al675    Al       0.82380    0.00000    0.78330    1.000
    Al676    Al       0.87960    0.00000    0.84140    1.000
    P675     P        0.82230    0.00000    0.72220    1.000
    P676     P        0.89000    0.00000    0.65550    1.000
    O2885    O        0.82110    0.00000    0.75180    1.000
    O2886    O        0.79410    0.00000    0.70900    1.000
    O2887    O        0.87440    0.00000    0.62810    1.000
    O2888    O        0.92020    0.00000    0.64910    1.000
    Al677    Al       0.32380    0.50000    0.78330    1.000
    Al678    Al       0.37960    0.50000    0.84140    1.000
    P677     P        0.32230    0.50000    0.72220    1.000
    P678     P        0.39000    0.50000    0.65550    1.000
    O2889    O        0.32110    0.50000    0.75180    1.000
    O2890    O        0.29410    0.50000    0.70900    1.000
    O2891    O        0.37440    0.50000    0.62810    1.000
    O2892    O        0.42020    0.50000    0.64910    1.000
    Al679    Al       0.32380    0.00000    0.28330    1.000
    Al680    Al       0.37960    0.00000    0.34140    1.000
    P679     P        0.32230    0.00000    0.22220    1.000
    P680     P        0.39000    0.00000    0.15550    1.000
    O2893    O        0.32110    0.00000    0.25180    1.000
    O2894    O        0.29410    0.00000    0.20900    1.000
    O2895    O        0.37440    0.00000    0.12810    1.000
    O2896    O        0.42020    0.00000    0.14910    1.000
    Al681    Al       0.17620    0.50000    0.28330    1.000
    Al682    Al       0.12040    0.50000    0.34140    1.000
    P681     P        0.17770    0.50000    0.22220    1.000
    P682     P        0.11000    0.50000    0.15550    1.000
    O2897    O        0.17890    0.50000    0.25180    1.000
    O2898    O        0.20590    0.50000    0.20900    1.000
    O2899    O        0.12560    0.50000    0.12810    1.000
    O2900    O        0.07980    0.50000    0.14910    1.000
    Al683    Al       0.17620    0.00000    0.78330    1.000
    Al684    Al       0.12040    0.00000    0.84140    1.000
    P683     P        0.17770    0.00000    0.72220    1.000
    P684     P        0.11000    0.00000    0.65550    1.000
    O2901    O        0.17890    0.00000    0.75180    1.000
    O2902    O        0.20590    0.00000    0.70900    1.000
    O2903    O        0.12560    0.00000    0.62810    1.000
    O2904    O        0.07980    0.00000    0.64910    1.000
    Al685    Al       0.67620    0.50000    0.78330    1.000
    Al686    Al       0.62040    0.50000    0.84140    1.000
    P685     P        0.67770    0.50000    0.72220    1.000
    P686     P        0.61000    0.50000    0.65550    1.000
    O2905    O        0.67890    0.50000    0.75180    1.000
    O2906    O        0.70590    0.50000    0.70900    1.000
    O2907    O        0.62560    0.50000    0.62810    1.000
    O2908    O        0.57980    0.50000    0.64910    1.000
    Al687    Al       0.67620    0.00000    0.28330    1.000
    Al688    Al       0.62040    0.00000    0.34140    1.000
    P687     P        0.67770    0.00000    0.22220    1.000
    P688     P        0.61000    0.00000    0.15550    1.000
    O2909    O        0.67890    0.00000    0.25180    1.000
    O2910    O        0.70590    0.00000    0.20900    1.000
    O2911    O        0.62560    0.00000    0.12810    1.000
    O2912    O        0.57980    0.00000    0.14910    1.000
    Al689    Al       0.82380    0.50000    0.71670    1.000
    Al690    Al       0.87960    0.50000    0.65860    1.000
    P689     P        0.82230    0.50000    0.77780    1.000
    P690     P        0.89000    0.50000    0.84450    1.000
    O2913    O        0.82110    0.50000    0.74820    1.000
    O2914    O        0.79410    0.50000    0.79100    1.000
    O2915    O        0.87440    0.50000    0.87190    1.000
    O2916    O        0.92020    0.50000    0.85090    1.000
    Al691    Al       0.82380    0.00000    0.21670    1.000
    Al692    Al       0.87960    0.00000    0.15860    1.000
    P691     P        0.82230    0.00000    0.27780    1.000
    P692     P        0.89000    0.00000    0.34450    1.000
    O2917    O        0.82110    0.00000    0.24820    1.000
    O2918    O        0.79410    0.00000    0.29100    1.000
    O2919    O        0.87440    0.00000    0.37190    1.000
    O2920    O        0.92020    0.00000    0.35090    1.000
    Al693    Al       0.32380    0.50000    0.21670    1.000
    Al694    Al       0.37960    0.50000    0.15860    1.000
    P693     P        0.32230    0.50000    0.27780    1.000
    P694     P        0.39000    0.50000    0.34450    1.000
    O2921    O        0.32110    0.50000    0.24820    1.000
    O2922    O        0.29410    0.50000    0.29100    1.000
    O2923    O        0.37440    0.50000    0.37190    1.000
    O2924    O        0.42020    0.50000    0.35090    1.000
    Al695    Al       0.32380    0.00000    0.71670    1.000
    Al696    Al       0.37960    0.00000    0.65860    1.000
    P695     P        0.32230    0.00000    0.77780    1.000
    P696     P        0.39000    0.00000    0.84450    1.000
    O2925    O        0.32110    0.00000    0.74820    1.000
    O2926    O        0.29410    0.00000    0.79100    1.000
    O2927    O        0.37440    0.00000    0.87190    1.000
    O2928    O        0.42020    0.00000    0.85090    1.000
    Al697    Al       0.17620    0.50000    0.71670    1.000
    Al698    Al       0.12040    0.50000    0.65860    1.000
    P697     P        0.17770    0.50000    0.77780    1.000
    P698     P        0.11000    0.50000    0.84450    1.000
    O2929    O        0.17890    0.50000    0.74820    1.000
    O2930    O        0.20590    0.50000    0.79100    1.000
    O2931    O        0.12560    0.50000    0.87190    1.000
    O2932    O        0.07980    0.50000    0.85090    1.000
    Al699    Al       0.17620    0.00000    0.21670    1.000
    Al700    Al       0.12040    0.00000    0.15860    1.000
    P699     P        0.17770    0.00000    0.27780    1.000
    P700     P        0.11000    0.00000    0.34450    1.000
    O2933    O        0.17890    0.00000    0.24820    1.000
    O2934    O        0.20590    0.00000    0.29100    1.000
    O2935    O        0.12560    0.00000    0.37190    1.000
    O2936    O        0.07980    0.00000    0.35090    1.000
    Al701    Al       0.67620    0.50000    0.21670    1.000
    Al702    Al       0.62040    0.50000    0.15860    1.000
    P701     P        0.67770    0.50000    0.27780    1.000
    P702     P        0.61000    0.50000    0.34450    1.000
    O2937    O        0.67890    0.50000    0.24820    1.000
    O2938    O        0.70590    0.50000    0.29100    1.000
    O2939    O        0.62560    0.50000    0.37190    1.000
    O2940    O        0.57980    0.50000    0.35090    1.000
    Al703    Al       0.67620    0.00000    0.71670    1.000
    Al704    Al       0.62040    0.00000    0.65860    1.000
    P703     P        0.67770    0.00000    0.77780    1.000
    P704     P        0.61000    0.00000    0.84450    1.000
    O2941    O        0.67890    0.00000    0.74820    1.000
    O2942    O        0.70590    0.00000    0.79100    1.000
    O2943    O        0.62560    0.00000    0.87190    1.000
    O2944    O        0.57980    0.00000    0.85090    1.000
    Al705    Al       0.50000    0.71670    0.17620    1.000
    Al706    Al       0.50000    0.65860    0.12040    1.000
    P705     P        0.50000    0.77780    0.17770    1.000
    P706     P        0.50000    0.84450    0.11000    1.000
    O2945    O        0.50000    0.74820    0.17890    1.000
    O2946    O        0.50000    0.79100    0.20590    1.000
    O2947    O        0.50000    0.87190    0.12560    1.000
    O2948    O        0.50000    0.85090    0.07980    1.000
    Al707    Al       0.50000    0.21670    0.67620    1.000
    Al708    Al       0.50000    0.15860    0.62040    1.000
    P707     P        0.50000    0.27780    0.67770    1.000
    P708     P        0.50000    0.34450    0.61000    1.000
    O2949    O        0.50000    0.24820    0.67890    1.000
    O2950    O        0.50000    0.29100    0.70590    1.000
    O2951    O        0.50000    0.37190    0.62560    1.000
    O2952    O        0.50000    0.35090    0.57980    1.000
    Al709    Al       0.00000    0.71670    0.67620    1.000
    Al710    Al       0.00000    0.65860    0.62040    1.000
    P709     P        0.00000    0.77780    0.67770    1.000
    P710     P        0.00000    0.84450    0.61000    1.000
    O2953    O        0.00000    0.74820    0.67890    1.000
    O2954    O        0.00000    0.79100    0.70590    1.000
    O2955    O        0.00000    0.87190    0.62560    1.000
    O2956    O        0.00000    0.85090    0.57980    1.000
    Al711    Al       0.00000    0.21670    0.17620    1.000
    Al712    Al       0.00000    0.15860    0.12040    1.000
    P711     P        0.00000    0.27780    0.17770    1.000
    P712     P        0.00000    0.34450    0.11000    1.000
    O2957    O        0.00000    0.24820    0.17890    1.000
    O2958    O        0.00000    0.29100    0.20590    1.000
    O2959    O        0.00000    0.37190    0.12560    1.000
    O2960    O        0.00000    0.35090    0.07980    1.000
    Al713    Al       0.50000    0.71670    0.82380    1.000
    Al714    Al       0.50000    0.65860    0.87960    1.000
    P713     P        0.50000    0.77780    0.82230    1.000
    P714     P        0.50000    0.84450    0.89000    1.000
    O2961    O        0.50000    0.74820    0.82110    1.000
    O2962    O        0.50000    0.79100    0.79410    1.000
    O2963    O        0.50000    0.87190    0.87440    1.000
    O2964    O        0.50000    0.85090    0.92020    1.000
    Al715    Al       0.50000    0.21670    0.32380    1.000
    Al716    Al       0.50000    0.15860    0.37960    1.000
    P715     P        0.50000    0.27780    0.32230    1.000
    P716     P        0.50000    0.34450    0.39000    1.000
    O2965    O        0.50000    0.24820    0.32110    1.000
    O2966    O        0.50000    0.29100    0.29410    1.000
    O2967    O        0.50000    0.37190    0.37440    1.000
    O2968    O        0.50000    0.35090    0.42020    1.000
    Al717    Al       0.00000    0.71670    0.32380    1.000
    Al718    Al       0.00000    0.65860    0.37960    1.000
    P717     P        0.00000    0.77780    0.32230    1.000
    P718     P        0.00000    0.84450    0.39000    1.000
    O2969    O        0.00000    0.74820    0.32110    1.000
    O2970    O        0.00000    0.79100    0.29410    1.000
    O2971    O        0.00000    0.87190    0.37440    1.000
    O2972    O        0.00000    0.85090    0.42020    1.000
    Al719    Al       0.00000    0.21670    0.82380    1.000
    Al720    Al       0.00000    0.15860    0.87960    1.000
    P719     P        0.00000    0.27780    0.82230    1.000
    P720     P        0.00000    0.34450    0.89000    1.000
    O2973    O        0.00000    0.24820    0.82110    1.000
    O2974    O        0.00000    0.29100    0.79410    1.000
    O2975    O        0.00000    0.37190    0.87440    1.000
    O2976    O        0.00000    0.35090    0.92020    1.000
    Al721    Al       0.50000    0.28330    0.17620    1.000
    Al722    Al       0.50000    0.34140    0.12040    1.000
    P721     P        0.50000    0.22220    0.17770    1.000
    P722     P        0.50000    0.15550    0.11000    1.000
    O2977    O        0.50000    0.25180    0.17890    1.000
    O2978    O        0.50000    0.20900    0.20590    1.000
    O2979    O        0.50000    0.12810    0.12560    1.000
    O2980    O        0.50000    0.14910    0.07980    1.000
    Al723    Al       0.50000    0.78330    0.67620    1.000
    Al724    Al       0.50000    0.84140    0.62040    1.000
    P723     P        0.50000    0.72220    0.67770    1.000
    P724     P        0.50000    0.65550    0.61000    1.000
    O2981    O        0.50000    0.75180    0.67890    1.000
    O2982    O        0.50000    0.70900    0.70590    1.000
    O2983    O        0.50000    0.62810    0.62560    1.000
    O2984    O        0.50000    0.64910    0.57980    1.000
    Al725    Al       0.00000    0.28330    0.67620    1.000
    Al726    Al       0.00000    0.34140    0.62040    1.000
    P725     P        0.00000    0.22220    0.67770    1.000
    P726     P        0.00000    0.15550    0.61000    1.000
    O2985    O        0.00000    0.25180    0.67890    1.000
    O2986    O        0.00000    0.20900    0.70590    1.000
    O2987    O        0.00000    0.12810    0.62560    1.000
    O2988    O        0.00000    0.14910    0.57980    1.000
    Al727    Al       0.00000    0.78330    0.17620    1.000
    Al728    Al       0.00000    0.84140    0.12040    1.000
    P727     P        0.00000    0.72220    0.17770    1.000
    P728     P        0.00000    0.65550    0.11000    1.000
    O2989    O        0.00000    0.75180    0.17890    1.000
    O2990    O        0.00000    0.70900    0.20590    1.000
    O2991    O        0.00000    0.62810    0.12560    1.000
    O2992    O        0.00000    0.64910    0.07980    1.000
    Al729    Al       0.50000    0.28330    0.82380    1.000
    Al730    Al       0.50000    0.34140    0.87960    1.000
    P729     P        0.50000    0.22220    0.82230    1.000
    P730     P        0.50000    0.15550    0.89000    1.000
    O2993    O        0.50000    0.25180    0.82110    1.000
    O2994    O        0.50000    0.20900    0.79410    1.000
    O2995    O        0.50000    0.12810    0.87440    1.000
    O2996    O        0.50000    0.14910    0.92020    1.000
    Al731    Al       0.50000    0.78330    0.32380    1.000
    Al732    Al       0.50000    0.84140    0.37960    1.000
    P731     P        0.50000    0.72220    0.32230    1.000
    P732     P        0.50000    0.65550    0.39000    1.000
    O2997    O        0.50000    0.75180    0.32110    1.000
    O2998    O        0.50000    0.70900    0.29410    1.000
    O2999    O        0.50000    0.62810    0.37440    1.000
    O3000    O        0.50000    0.64910    0.42020    1.000
    Al733    Al       0.00000    0.28330    0.32380    1.000
    Al734    Al       0.00000    0.34140    0.37960    1.000
    P733     P        0.00000    0.22220    0.32230    1.000
    P734     P        0.00000    0.15550    0.39000    1.000
    O3001    O        0.00000    0.25180    0.32110    1.000
    O3002    O        0.00000    0.20900    0.29410    1.000
    O3003    O        0.00000    0.12810    0.37440    1.000
    O3004    O        0.00000    0.14910    0.42020    1.000
    Al735    Al       0.00000    0.78330    0.82380    1.000
    Al736    Al       0.00000    0.84140    0.87960    1.000
    P735     P        0.00000    0.72220    0.82230    1.000
    P736     P        0.00000    0.65550    0.89000    1.000
    O3005    O        0.00000    0.75180    0.82110    1.000
    O3006    O        0.00000    0.70900    0.79410    1.000
    O3007    O        0.00000    0.62810    0.87440    1.000
    O3008    O        0.00000    0.64910    0.92020    1.000
    Al737    Al       0.71670    0.82380    0.50000    1.000
    Al738    Al       0.65860    0.87960    0.50000    1.000
    P737     P        0.77780    0.82230    0.50000    1.000
    P738     P        0.84450    0.89000    0.50000    1.000
    O3009    O        0.74820    0.82110    0.50000    1.000
    O3010    O        0.79100    0.79410    0.50000    1.000
    O3011    O        0.87190    0.87440    0.50000    1.000
    O3012    O        0.85090    0.92020    0.50000    1.000
    Al739    Al       0.71670    0.32380    0.00000    1.000
    Al740    Al       0.65860    0.37960    0.00000    1.000
    P739     P        0.77780    0.32230    0.00000    1.000
    P740     P        0.84450    0.39000    0.00000    1.000
    O3013    O        0.74820    0.32110    0.00000    1.000
    O3014    O        0.79100    0.29410    0.00000    1.000
    O3015    O        0.87190    0.37440    0.00000    1.000
    O3016    O        0.85090    0.42020    0.00000    1.000
    Al741    Al       0.21670    0.82380    0.00000    1.000
    Al742    Al       0.15860    0.87960    0.00000    1.000
    P741     P        0.27780    0.82230    0.00000    1.000
    P742     P        0.34450    0.89000    0.00000    1.000
    O3017    O        0.24820    0.82110    0.00000    1.000
    O3018    O        0.29100    0.79410    0.00000    1.000
    O3019    O        0.37190    0.87440    0.00000    1.000
    O3020    O        0.35090    0.92020    0.00000    1.000
    Al743    Al       0.21670    0.32380    0.50000    1.000
    Al744    Al       0.15860    0.37960    0.50000    1.000
    P743     P        0.27780    0.32230    0.50000    1.000
    P744     P        0.34450    0.39000    0.50000    1.000
    O3021    O        0.24820    0.32110    0.50000    1.000
    O3022    O        0.29100    0.29410    0.50000    1.000
    O3023    O        0.37190    0.37440    0.50000    1.000
    O3024    O        0.35090    0.42020    0.50000    1.000
    Al745    Al       0.71670    0.17620    0.50000    1.000
    Al746    Al       0.65860    0.12040    0.50000    1.000
    P745     P        0.77780    0.17770    0.50000    1.000
    P746     P        0.84450    0.11000    0.50000    1.000
    O3025    O        0.74820    0.17890    0.50000    1.000
    O3026    O        0.79100    0.20590    0.50000    1.000
    O3027    O        0.87190    0.12560    0.50000    1.000
    O3028    O        0.85090    0.07980    0.50000    1.000
    Al747    Al       0.71670    0.67620    0.00000    1.000
    Al748    Al       0.65860    0.62040    0.00000    1.000
    P747     P        0.77780    0.67770    0.00000    1.000
    P748     P        0.84450    0.61000    0.00000    1.000
    O3029    O        0.74820    0.67890    0.00000    1.000
    O3030    O        0.79100    0.70590    0.00000    1.000
    O3031    O        0.87190    0.62560    0.00000    1.000
    O3032    O        0.85090    0.57980    0.00000    1.000
    Al749    Al       0.21670    0.17620    0.00000    1.000
    Al750    Al       0.15860    0.12040    0.00000    1.000
    P749     P        0.27780    0.17770    0.00000    1.000
    P750     P        0.34450    0.11000    0.00000    1.000
    O3033    O        0.24820    0.17890    0.00000    1.000
    O3034    O        0.29100    0.20590    0.00000    1.000
    O3035    O        0.37190    0.12560    0.00000    1.000
    O3036    O        0.35090    0.07980    0.00000    1.000
    Al751    Al       0.21670    0.67620    0.50000    1.000
    Al752    Al       0.15860    0.62040    0.50000    1.000
    P751     P        0.27780    0.67770    0.50000    1.000
    P752     P        0.34450    0.61000    0.50000    1.000
    O3037    O        0.24820    0.67890    0.50000    1.000
    O3038    O        0.29100    0.70590    0.50000    1.000
    O3039    O        0.37190    0.62560    0.50000    1.000
    O3040    O        0.35090    0.57980    0.50000    1.000
    Al753    Al       0.28330    0.82380    0.50000    1.000
    Al754    Al       0.34140    0.87960    0.50000    1.000
    P753     P        0.22220    0.82230    0.50000    1.000
    P754     P        0.15550    0.89000    0.50000    1.000
    O3041    O        0.25180    0.82110    0.50000    1.000
    O3042    O        0.20900    0.79410    0.50000    1.000
    O3043    O        0.12810    0.87440    0.50000    1.000
    O3044    O        0.14910    0.92020    0.50000    1.000
    Al755    Al       0.28330    0.32380    0.00000    1.000
    Al756    Al       0.34140    0.37960    0.00000    1.000
    P755     P        0.22220    0.32230    0.00000    1.000
    P756     P        0.15550    0.39000    0.00000    1.000
    O3045    O        0.25180    0.32110    0.00000    1.000
    O3046    O        0.20900    0.29410    0.00000    1.000
    O3047    O        0.12810    0.37440    0.00000    1.000
    O3048    O        0.14910    0.42020    0.00000    1.000
    Al757    Al       0.78330    0.82380    0.00000    1.000
    Al758    Al       0.84140    0.87960    0.00000    1.000
    P757     P        0.72220    0.82230    0.00000    1.000
    P758     P        0.65550    0.89000    0.00000    1.000
    O3049    O        0.75180    0.82110    0.00000    1.000
    O3050    O        0.70900    0.79410    0.00000    1.000
    O3051    O        0.62810    0.87440    0.00000    1.000
    O3052    O        0.64910    0.92020    0.00000    1.000
    Al759    Al       0.78330    0.32380    0.50000    1.000
    Al760    Al       0.84140    0.37960    0.50000    1.000
    P759     P        0.72220    0.32230    0.50000    1.000
    P760     P        0.65550    0.39000    0.50000    1.000
    O3053    O        0.75180    0.32110    0.50000    1.000
    O3054    O        0.70900    0.29410    0.50000    1.000
    O3055    O        0.62810    0.37440    0.50000    1.000
    O3056    O        0.64910    0.42020    0.50000    1.000
    Al761    Al       0.28330    0.17620    0.50000    1.000
    Al762    Al       0.34140    0.12040    0.50000    1.000
    P761     P        0.22220    0.17770    0.50000    1.000
    P762     P        0.15550    0.11000    0.50000    1.000
    O3057    O        0.25180    0.17890    0.50000    1.000
    O3058    O        0.20900    0.20590    0.50000    1.000
    O3059    O        0.12810    0.12560    0.50000    1.000
    O3060    O        0.14910    0.07980    0.50000    1.000
    Al763    Al       0.28330    0.67620    0.00000    1.000
    Al764    Al       0.34140    0.62040    0.00000    1.000
    P763     P        0.22220    0.67770    0.00000    1.000
    P764     P        0.15550    0.61000    0.00000    1.000
    O3061    O        0.25180    0.67890    0.00000    1.000
    O3062    O        0.20900    0.70590    0.00000    1.000
    O3063    O        0.12810    0.62560    0.00000    1.000
    O3064    O        0.14910    0.57980    0.00000    1.000
    Al765    Al       0.78330    0.17620    0.00000    1.000
    Al766    Al       0.84140    0.12040    0.00000    1.000
    P765     P        0.72220    0.17770    0.00000    1.000
    P766     P        0.65550    0.11000    0.00000    1.000
    O3065    O        0.75180    0.17890    0.00000    1.000
    O3066    O        0.70900    0.20590    0.00000    1.000
    O3067    O        0.62810    0.12560    0.00000    1.000
    O3068    O        0.64910    0.07980    0.00000    1.000
    Al767    Al       0.78330    0.67620    0.50000    1.000
    Al768    Al       0.84140    0.62040    0.50000    1.000
    P767     P        0.72220    0.67770    0.50000    1.000
    P768     P        0.65550    0.61000    0.50000    1.000
    O3069    O        0.75180    0.67890    0.50000    1.000
    O3070    O        0.70900    0.70590    0.50000    1.000
    O3071    O        0.62810    0.62560    0.50000    1.000
    O3072    O        0.64910    0.57980    0.50000    1.000
