# CIF file generated by openbabel 3.1.0, see https://openbabel.org
data_I
_chemical_name_common 'image0'
_cell_length_a 27.806
_cell_length_b 13.8091
_cell_length_c 45.1378
_cell_angle_alpha 90
_cell_angle_beta 90
_cell_angle_gamma 90
_space_group_name_H-M_alt 'P 1'
_space_group_name_Hall 'P 1'
loop_
    _symmetry_equiv_pos_as_xyz
    x,y,z
loop_
    _atom_site_label
    _atom_site_type_symbol
    _atom_site_fract_x
    _atom_site_fract_y
    _atom_site_fract_z
    _atom_site_occupancy
    Zn1      Zn       0.47652    0.12844    0.41532    1.000
    Zn2      Zn       0.73880    0.83092    0.18533    1.000
    Zn3      Zn       0.95148    0.14518    0.42169    1.000
    I1       I        0.49452    0.20158    0.46633    1.000
    I2       I        0.43073    0.21682    0.37528    1.000
    I3       I        0.69389    0.67095    0.19226    1.000
    I4       I        0.82676    0.83229    0.17010    1.000
    I5       I        0.94575    0.32757    0.42694    1.000
    I6       I        0.01626    0.05227    0.39445    1.000
    C1       C        0.67660    0.04710    0.35344    1.000
    C2       C        0.71980    0.01060    0.31267    1.000
    C3       C        0.75690    0.05020    0.35504    1.000
    C4       C        0.62930    0.06000    0.36850    1.000
    C5       C        0.62650    0.08060    0.39786    1.000
    H1       H        0.65510    0.08420    0.40930    1.000
    C6       C        0.58330    0.09640    0.41123    1.000
    H2       H        0.58260    0.11200    0.43170    1.000
    C7       C        0.54460    0.06770    0.36730    1.000
    H3       H        0.51550    0.06250    0.35640    1.000
    C8       C        0.58660    0.05140    0.35276    1.000
    H4       H        0.58670    0.03460    0.33230    1.000
    C9       C        0.72360    0.97750    0.28164    1.000
    C10      C        0.68300    0.94050    0.26716    1.000
    H5       H        0.65240    0.94000    0.27640    1.000
    C11      C        0.68960    0.90380    0.23823    1.000
    H6       H        0.66260    0.87730    0.22830    1.000
    C12      C        0.76920    0.94240    0.23828    1.000
    H7       H        0.79910    0.94470    0.22810    1.000
    C13      C        0.76690    0.97830    0.26678    1.000
    H8       H        0.79490    0.00340    0.27610    1.000
    C14      C        0.80240    0.06700    0.37145    1.000
    C15      C        0.84690    0.05800    0.35748    1.000
    H9       H        0.84840    0.03990    0.33720    1.000
    C16      C        0.88820    0.07530    0.37296    1.000
    H10      H        0.91820    0.06790    0.36320    1.000
    C17      C        0.84540    0.11030    0.41546    1.000
    H11      H        0.84510    0.12920    0.43570    1.000
    C18      C        0.80200    0.09210    0.40169    1.000
    H12      H        0.77270    0.09650    0.41230    1.000
    C19      C        0.39430    0.70680    0.43380    1.000
    C20      C        0.39880    0.56930    0.46020    1.000
    C21      C        0.36150    0.57170    0.41556    1.000
    C22      C        0.40850    0.80980    0.43015    1.000
    C23      C        0.40550    0.85560    0.40305    1.000
    H13      H        0.39230    0.82300    0.38640    1.000
    C24      C        0.42170    0.94770    0.40053    1.000
    H14      H        0.41810    0.97940    0.38200    1.000
    C25      C        0.44520    0.95290    0.44898    1.000
    H15      H        0.45890    0.98720    0.46510    1.000
    C26      C        0.42930    0.86120    0.45412    1.000
    H16      H        0.43200    0.83260    0.47320    1.000
    C27      C        0.41500    0.51540    0.48604    1.000
    C28      C        0.43950    0.56190    0.50894    1.000
    H17      H        0.44700    0.62880    0.50730    1.000
    C29      C        0.45260    0.51150    0.53385    1.000
    H18      H        0.46950    0.54470    0.54910    1.000
    C30      C        0.42030    0.37080    0.51555    1.000
    H19      H        0.41400    0.30360    0.51770    1.000
    C31      C        0.40600    0.41810    0.48932    1.000
    H20      H        0.39020    0.38300    0.47400    1.000
    C32      C        0.33800    0.51780    0.39165    1.000
    C33      C        0.34040    0.41740    0.39070    1.000
    H21      H        0.35700    0.38290    0.40580    1.000
    C34      C        0.31920    0.36870    0.36820    1.000
    H22      H        0.32060    0.30000    0.36830    1.000
    C35      C        0.29280    0.50880    0.34687    1.000
    H23      H        0.27550    0.54070    0.33160    1.000
    C36      C        0.31260    0.56430    0.36838    1.000
    H24      H        0.30950    0.63280    0.36790    1.000
    N1       N        0.67600    0.02100    0.32454    1.000
    N2       N        0.76130    0.02530    0.32704    1.000
    N3       N        0.71560    0.06310    0.36963    1.000
    N4       N        0.54160    0.09050    0.39623    1.000
    N5       N        0.73120    0.90450    0.22441    1.000
    N6       N        0.88770    0.10260    0.40184    1.000
    N7       N        0.40930    0.66400    0.45851    1.000
    N8       N        0.37420    0.51990    0.43948    1.000
    N9       N        0.36970    0.66630    0.41180    1.000
    N10      N        0.44280    0.99750    0.42312    1.000
    N11      N        0.44270    0.41820    0.53760    1.000
    N12      N        0.29600    0.41330    0.34560    1.000
    Zn4      Zn       0.02348    0.87156    0.91532    1.000
    Zn5      Zn       0.76120    0.16908    0.68533    1.000
    Zn6      Zn       0.54852    0.85482    0.92169    1.000
    I7       I        0.00548    0.79842    0.96633    1.000
    I8       I        0.06927    0.78318    0.87528    1.000
    I9       I        0.80611    0.32905    0.69226    1.000
    I10      I        0.67324    0.16771    0.67010    1.000
    I11      I        0.55425    0.67243    0.92694    1.000
    I12      I        0.48374    0.94773    0.89445    1.000
    C37      C        0.82340    0.95290    0.85344    1.000
    C38      C        0.78020    0.98940    0.81267    1.000
    C39      C        0.74310    0.94980    0.85504    1.000
    C40      C        0.87070    0.94000    0.86850    1.000
    C41      C        0.87350    0.91940    0.89786    1.000
    H25      H        0.84490    0.91580    0.90930    1.000
    C42      C        0.91670    0.90360    0.91123    1.000
    H26      H        0.91740    0.88800    0.93170    1.000
    C43      C        0.95540    0.93230    0.86730    1.000
    H27      H        0.98450    0.93750    0.85640    1.000
    C44      C        0.91340    0.94860    0.85276    1.000
    H28      H        0.91330    0.96540    0.83230    1.000
    C45      C        0.77640    0.02250    0.78164    1.000
    C46      C        0.81700    0.05950    0.76716    1.000
    H29      H        0.84760    0.06000    0.77640    1.000
    C47      C        0.81040    0.09620    0.73823    1.000
    H30      H        0.83740    0.12270    0.72830    1.000
    C48      C        0.73080    0.05760    0.73828    1.000
    H31      H        0.70090    0.05530    0.72810    1.000
    C49      C        0.73310    0.02170    0.76678    1.000
    H32      H        0.70510    0.99660    0.77610    1.000
    C50      C        0.69760    0.93300    0.87145    1.000
    C51      C        0.65310    0.94200    0.85748    1.000
    H33      H        0.65160    0.96010    0.83720    1.000
    C52      C        0.61180    0.92470    0.87296    1.000
    H34      H        0.58180    0.93210    0.86320    1.000
    C53      C        0.65460    0.88970    0.91546    1.000
    H35      H        0.65490    0.87080    0.93570    1.000
    C54      C        0.69800    0.90790    0.90169    1.000
    H36      H        0.72730    0.90350    0.91230    1.000
    C55      C        0.10570    0.29320    0.93380    1.000
    C56      C        0.10120    0.43070    0.96020    1.000
    C57      C        0.13850    0.42830    0.91556    1.000
    C58      C        0.09150    0.19020    0.93015    1.000
    C59      C        0.09450    0.14440    0.90305    1.000
    H37      H        0.10770    0.17700    0.88640    1.000
    C60      C        0.07830    0.05230    0.90053    1.000
    H38      H        0.08190    0.02060    0.88200    1.000
    C61      C        0.05480    0.04710    0.94898    1.000
    H39      H        0.04110    0.01280    0.96510    1.000
    C62      C        0.07070    0.13880    0.95412    1.000
    H40      H        0.06800    0.16740    0.97320    1.000
    C63      C        0.08500    0.48460    0.98604    1.000
    C64      C        0.06050    0.43810    0.00894    1.000
    H41      H        0.05300    0.37120    0.00730    1.000
    C65      C        0.04740    0.48850    0.03385    1.000
    H42      H        0.03050    0.45530    0.04910    1.000
    C66      C        0.07970    0.62920    0.01555    1.000
    H43      H        0.08600    0.69640    0.01770    1.000
    C67      C        0.09400    0.58190    0.98932    1.000
    H44      H        0.10980    0.61700    0.97400    1.000
    C68      C        0.16200    0.48220    0.89165    1.000
    C69      C        0.15960    0.58260    0.89070    1.000
    H45      H        0.14300    0.61710    0.90580    1.000
    C70      C        0.18080    0.63130    0.86820    1.000
    H46      H        0.17940    0.70000    0.86830    1.000
    C71      C        0.20720    0.49120    0.84687    1.000
    H47      H        0.22450    0.45930    0.83160    1.000
    C72      C        0.18740    0.43570    0.86838    1.000
    H48      H        0.19050    0.36720    0.86790    1.000
    N13      N        0.82400    0.97900    0.82454    1.000
    N14      N        0.73870    0.97470    0.82704    1.000
    N15      N        0.78440    0.93690    0.86963    1.000
    N16      N        0.95840    0.90950    0.89623    1.000
    N17      N        0.76880    0.09550    0.72441    1.000
    N18      N        0.61230    0.89740    0.90184    1.000
    N19      N        0.09070    0.33600    0.95851    1.000
    N20      N        0.12580    0.48010    0.93948    1.000
    N21      N        0.13030    0.33370    0.91180    1.000
    N22      N        0.05720    0.00250    0.92312    1.000
    N23      N        0.05730    0.58180    0.03760    1.000
    N24      N        0.20400    0.58670    0.84560    1.000
    Zn7      Zn       0.52348    0.62844    0.08468    1.000
    Zn8      Zn       0.26120    0.33092    0.31467    1.000
    Zn9      Zn       0.04852    0.64518    0.07831    1.000
    I13      I        0.50548    0.70158    0.03367    1.000
    I14      I        0.56927    0.71682    0.12472    1.000
    I15      I        0.30611    0.17095    0.30774    1.000
    I16      I        0.17324    0.33229    0.32990    1.000
    I17      I        0.05425    0.82757    0.07306    1.000
    I18      I        0.98374    0.55227    0.10555    1.000
    C73      C        0.32340    0.54710    0.14656    1.000
    C74      C        0.28020    0.51060    0.18733    1.000
    C75      C        0.24310    0.55020    0.14496    1.000
    C76      C        0.37070    0.56000    0.13150    1.000
    C77      C        0.37350    0.58060    0.10214    1.000
    H49      H        0.34490    0.58420    0.09070    1.000
    C78      C        0.41670    0.59640    0.08877    1.000
    H50      H        0.41740    0.61200    0.06830    1.000
    C79      C        0.45540    0.56770    0.13270    1.000
    H51      H        0.48450    0.56250    0.14360    1.000
    C80      C        0.41340    0.55140    0.14724    1.000
    H52      H        0.41330    0.53460    0.16770    1.000
    C81      C        0.27640    0.47750    0.21836    1.000
    C82      C        0.31700    0.44050    0.23284    1.000
    H53      H        0.34760    0.44000    0.22360    1.000
    C83      C        0.31040    0.40380    0.26177    1.000
    H54      H        0.33740    0.37730    0.27170    1.000
    C84      C        0.23080    0.44240    0.26172    1.000
    H55      H        0.20090    0.44470    0.27190    1.000
    C85      C        0.23310    0.47830    0.23322    1.000
    H56      H        0.20510    0.50340    0.22390    1.000
    C86      C        0.19760    0.56700    0.12855    1.000
    C87      C        0.15310    0.55800    0.14252    1.000
    H57      H        0.15160    0.53990    0.16280    1.000
    C88      C        0.11180    0.57530    0.12704    1.000
    H58      H        0.08180    0.56790    0.13680    1.000
    C89      C        0.15460    0.61030    0.08454    1.000
    H59      H        0.15490    0.62920    0.06430    1.000
    C90      C        0.19800    0.59210    0.09831    1.000
    H60      H        0.22730    0.59650    0.08770    1.000
    C91      C        0.60570    0.20680    0.06620    1.000
    C92      C        0.60120    0.06930    0.03980    1.000
    C93      C        0.63850    0.07170    0.08444    1.000
    C94      C        0.59150    0.30980    0.06985    1.000
    C95      C        0.59450    0.35560    0.09695    1.000
    H61      H        0.60770    0.32300    0.11360    1.000
    C96      C        0.57830    0.44770    0.09947    1.000
    H62      H        0.58190    0.47940    0.11800    1.000
    C97      C        0.55480    0.45290    0.05102    1.000
    H63      H        0.54110    0.48720    0.03490    1.000
    C98      C        0.57070    0.36120    0.04588    1.000
    H64      H        0.56800    0.33260    0.02680    1.000
    C99      C        0.58500    0.01540    0.01396    1.000
    C100     C        0.56050    0.06190    0.99106    1.000
    H65      H        0.55300    0.12880    0.99270    1.000
    C101     C        0.54740    0.01150    0.96615    1.000
    H66      H        0.53050    0.04470    0.95090    1.000
    C102     C        0.57970    0.87080    0.98445    1.000
    H67      H        0.58600    0.80360    0.98230    1.000
    C103     C        0.59400    0.91810    0.01068    1.000
    H68      H        0.60980    0.88300    0.02600    1.000
    C104     C        0.66200    0.01780    0.10835    1.000
    C105     C        0.65960    0.91740    0.10930    1.000
    H69      H        0.64300    0.88290    0.09420    1.000
    C106     C        0.68080    0.86870    0.13180    1.000
    H70      H        0.67940    0.80000    0.13170    1.000
    C107     C        0.70720    0.00880    0.15313    1.000
    H71      H        0.72450    0.04070    0.16840    1.000
    C108     C        0.68740    0.06430    0.13162    1.000
    H72      H        0.69050    0.13280    0.13210    1.000
    N25      N        0.32400    0.52100    0.17546    1.000
    N26      N        0.23870    0.52530    0.17296    1.000
    N27      N        0.28440    0.56310    0.13037    1.000
    N28      N        0.45840    0.59050    0.10377    1.000
    N29      N        0.26880    0.40450    0.27559    1.000
    N30      N        0.11230    0.60260    0.09816    1.000
    N31      N        0.59070    0.16400    0.04149    1.000
    N32      N        0.62580    0.01990    0.06052    1.000
    N33      N        0.63030    0.16630    0.08820    1.000
    N34      N        0.55720    0.49750    0.07688    1.000
    N35      N        0.55730    0.91820    0.96240    1.000
    N36      N        0.70400    0.91330    0.15440    1.000
    Zn10     Zn       0.97652    0.37156    0.58468    1.000
    Zn11     Zn       0.23880    0.66908    0.81467    1.000
    Zn12     Zn       0.45148    0.35482    0.57831    1.000
    I19      I        0.99452    0.29842    0.53367    1.000
    I20      I        0.93073    0.28318    0.62472    1.000
    I21      I        0.19389    0.82905    0.80774    1.000
    I22      I        0.32676    0.66771    0.82990    1.000
    I23      I        0.44575    0.17243    0.57306    1.000
    I24      I        0.51626    0.44773    0.60555    1.000
    C109     C        0.17660    0.45290    0.64656    1.000
    C110     C        0.21980    0.48940    0.68733    1.000
    C111     C        0.25690    0.44980    0.64496    1.000
    C112     C        0.12930    0.44000    0.63150    1.000
    C113     C        0.12650    0.41940    0.60214    1.000
    H73      H        0.15510    0.41580    0.59070    1.000
    C114     C        0.08330    0.40360    0.58877    1.000
    H74      H        0.08260    0.38800    0.56830    1.000
    C115     C        0.04460    0.43230    0.63270    1.000
    H75      H        0.01550    0.43750    0.64360    1.000
    C116     C        0.08660    0.44860    0.64724    1.000
    H76      H        0.08670    0.46540    0.66770    1.000
    C117     C        0.22360    0.52250    0.71836    1.000
    C118     C        0.18300    0.55950    0.73284    1.000
    H77      H        0.15240    0.56000    0.72360    1.000
    C119     C        0.18960    0.59620    0.76177    1.000
    H78      H        0.16260    0.62270    0.77170    1.000
    C120     C        0.26920    0.55760    0.76172    1.000
    H79      H        0.29910    0.55530    0.77190    1.000
    C121     C        0.26690    0.52170    0.73322    1.000
    H80      H        0.29490    0.49660    0.72390    1.000
    C122     C        0.30240    0.43300    0.62855    1.000
    C123     C        0.34690    0.44200    0.64252    1.000
    H81      H        0.34840    0.46010    0.66280    1.000
    C124     C        0.38820    0.42470    0.62704    1.000
    H82      H        0.41820    0.43210    0.63680    1.000
    C125     C        0.34540    0.38970    0.58454    1.000
    H83      H        0.34510    0.37080    0.56430    1.000
    C126     C        0.30200    0.40790    0.59831    1.000
    H84      H        0.27270    0.40350    0.58770    1.000
    C127     C        0.89430    0.79320    0.56620    1.000
    C128     C        0.89880    0.93070    0.53980    1.000
    C129     C        0.86150    0.92830    0.58444    1.000
    C130     C        0.90850    0.69020    0.56985    1.000
    C131     C        0.90550    0.64440    0.59695    1.000
    H85      H        0.89230    0.67700    0.61360    1.000
    C132     C        0.92170    0.55230    0.59947    1.000
    H86      H        0.91810    0.52060    0.61800    1.000
    C133     C        0.94520    0.54710    0.55102    1.000
    H87      H        0.95890    0.51280    0.53490    1.000
    C134     C        0.92930    0.63880    0.54588    1.000
    H88      H        0.93200    0.66740    0.52680    1.000
    C135     C        0.91500    0.98460    0.51396    1.000
    C136     C        0.93950    0.93810    0.49106    1.000
    H89      H        0.94700    0.87120    0.49270    1.000
    C137     C        0.95260    0.98850    0.46615    1.000
    H90      H        0.96950    0.95530    0.45090    1.000
    C138     C        0.92030    0.12920    0.48445    1.000
    H91      H        0.91400    0.19640    0.48230    1.000
    C139     C        0.90600    0.08190    0.51068    1.000
    H92      H        0.89020    0.11700    0.52600    1.000
    C140     C        0.83800    0.98220    0.60835    1.000
    C141     C        0.84040    0.08260    0.60930    1.000
    H93      H        0.85700    0.11710    0.59420    1.000
    C142     C        0.81920    0.13130    0.63180    1.000
    H94      H        0.82060    0.20000    0.63170    1.000
    C143     C        0.79280    0.99120    0.65313    1.000
    H95      H        0.77550    0.95930    0.66840    1.000
    C144     C        0.81260    0.93570    0.63162    1.000
    H96      H        0.80950    0.86720    0.63210    1.000
    N37      N        0.17600    0.47900    0.67546    1.000
    N38      N        0.26130    0.47470    0.67296    1.000
    N39      N        0.21560    0.43690    0.63037    1.000
    N40      N        0.04160    0.40950    0.60377    1.000
    N41      N        0.23120    0.59550    0.77559    1.000
    N42      N        0.38770    0.39740    0.59816    1.000
    N43      N        0.90930    0.83600    0.54149    1.000
    N44      N        0.87420    0.98010    0.56052    1.000
    N45      N        0.86970    0.83370    0.58820    1.000
    N46      N        0.94280    0.50250    0.57688    1.000
    N47      N        0.94270    0.08180    0.46240    1.000
    N48      N        0.79600    0.08670    0.65440    1.000
    Zn13     Zn       0.52348    0.87156    0.58468    1.000
    Zn14     Zn       0.26120    0.16908    0.81467    1.000
    Zn15     Zn       0.04852    0.85482    0.57831    1.000
    I25      I        0.50548    0.79842    0.53367    1.000
    I26      I        0.56927    0.78318    0.62472    1.000
    I27      I        0.30611    0.32905    0.80774    1.000
    I28      I        0.17324    0.16771    0.82990    1.000
    I29      I        0.05425    0.67243    0.57306    1.000
    I30      I        0.98374    0.94773    0.60555    1.000
    C145     C        0.32340    0.95290    0.64656    1.000
    C146     C        0.28020    0.98940    0.68733    1.000
    C147     C        0.24310    0.94980    0.64496    1.000
    C148     C        0.37070    0.94000    0.63150    1.000
    C149     C        0.37350    0.91940    0.60214    1.000
    H97      H        0.34490    0.91580    0.59070    1.000
    C150     C        0.41670    0.90360    0.58877    1.000
    H98      H        0.41740    0.88800    0.56830    1.000
    C151     C        0.45540    0.93230    0.63270    1.000
    H99      H        0.48450    0.93750    0.64360    1.000
    C152     C        0.41340    0.94860    0.64724    1.000
    H100     H        0.41330    0.96540    0.66770    1.000
    C153     C        0.27640    0.02250    0.71836    1.000
    C154     C        0.31700    0.05950    0.73284    1.000
    H101     H        0.34760    0.06000    0.72360    1.000
    C155     C        0.31040    0.09620    0.76177    1.000
    H102     H        0.33740    0.12270    0.77170    1.000
    C156     C        0.23080    0.05760    0.76172    1.000
    H103     H        0.20090    0.05530    0.77190    1.000
    C157     C        0.23310    0.02170    0.73322    1.000
    H104     H        0.20510    0.99660    0.72390    1.000
    C158     C        0.19760    0.93300    0.62855    1.000
    C159     C        0.15310    0.94200    0.64252    1.000
    H105     H        0.15160    0.96010    0.66280    1.000
    C160     C        0.11180    0.92470    0.62704    1.000
    H106     H        0.08180    0.93210    0.63680    1.000
    C161     C        0.15460    0.88970    0.58454    1.000
    H107     H        0.15490    0.87080    0.56430    1.000
    C162     C        0.19800    0.90790    0.59831    1.000
    H108     H        0.22730    0.90350    0.58770    1.000
    C163     C        0.60570    0.29320    0.56620    1.000
    C164     C        0.60120    0.43070    0.53980    1.000
    C165     C        0.63850    0.42830    0.58444    1.000
    C166     C        0.59150    0.19020    0.56985    1.000
    C167     C        0.59450    0.14440    0.59695    1.000
    H109     H        0.60770    0.17700    0.61360    1.000
    C168     C        0.57830    0.05230    0.59947    1.000
    H110     H        0.58190    0.02060    0.61800    1.000
    C169     C        0.55480    0.04710    0.55102    1.000
    H111     H        0.54110    0.01280    0.53490    1.000
    C170     C        0.57070    0.13880    0.54588    1.000
    H112     H        0.56800    0.16740    0.52680    1.000
    C171     C        0.58500    0.48460    0.51396    1.000
    C172     C        0.56050    0.43810    0.49106    1.000
    H113     H        0.55300    0.37120    0.49270    1.000
    C173     C        0.54740    0.48850    0.46615    1.000
    H114     H        0.53050    0.45530    0.45090    1.000
    C174     C        0.57970    0.62920    0.48445    1.000
    H115     H        0.58600    0.69640    0.48230    1.000
    C175     C        0.59400    0.58190    0.51068    1.000
    H116     H        0.60980    0.61700    0.52600    1.000
    C176     C        0.66200    0.48220    0.60835    1.000
    C177     C        0.65960    0.58260    0.60930    1.000
    H117     H        0.64300    0.61710    0.59420    1.000
    C178     C        0.68080    0.63130    0.63180    1.000
    H118     H        0.67940    0.70000    0.63170    1.000
    C179     C        0.70720    0.49120    0.65313    1.000
    H119     H        0.72450    0.45930    0.66840    1.000
    C180     C        0.68740    0.43570    0.63162    1.000
    H120     H        0.69050    0.36720    0.63210    1.000
    N49      N        0.32400    0.97900    0.67546    1.000
    N50      N        0.23870    0.97470    0.67296    1.000
    N51      N        0.28440    0.93690    0.63037    1.000
    N52      N        0.45840    0.90950    0.60377    1.000
    N53      N        0.26880    0.09550    0.77559    1.000
    N54      N        0.11230    0.89740    0.59816    1.000
    N55      N        0.59070    0.33600    0.54149    1.000
    N56      N        0.62580    0.48010    0.56052    1.000
    N57      N        0.63030    0.33370    0.58820    1.000
    N58      N        0.55720    0.00250    0.57688    1.000
    N59      N        0.55730    0.58180    0.46240    1.000
    N60      N        0.70400    0.58670    0.65440    1.000
    Zn16     Zn       0.97652    0.12844    0.08468    1.000
    Zn17     Zn       0.23880    0.83092    0.31467    1.000
    Zn18     Zn       0.45148    0.14518    0.07831    1.000
    I31      I        0.99452    0.20158    0.03367    1.000
    I32      I        0.93073    0.21682    0.12472    1.000
    I33      I        0.19389    0.67095    0.30774    1.000
    I34      I        0.32676    0.83229    0.32990    1.000
    I35      I        0.44575    0.32757    0.07306    1.000
    I36      I        0.51626    0.05227    0.10555    1.000
    C181     C        0.17660    0.04710    0.14656    1.000
    C182     C        0.21980    0.01060    0.18733    1.000
    C183     C        0.25690    0.05020    0.14496    1.000
    C184     C        0.12930    0.06000    0.13150    1.000
    C185     C        0.12650    0.08060    0.10214    1.000
    H121     H        0.15510    0.08420    0.09070    1.000
    C186     C        0.08330    0.09640    0.08877    1.000
    H122     H        0.08260    0.11200    0.06830    1.000
    C187     C        0.04460    0.06770    0.13270    1.000
    H123     H        0.01550    0.06250    0.14360    1.000
    C188     C        0.08660    0.05140    0.14724    1.000
    H124     H        0.08670    0.03460    0.16770    1.000
    C189     C        0.22360    0.97750    0.21836    1.000
    C190     C        0.18300    0.94050    0.23284    1.000
    H125     H        0.15240    0.94000    0.22360    1.000
    C191     C        0.18960    0.90380    0.26177    1.000
    H126     H        0.16260    0.87730    0.27170    1.000
    C192     C        0.26920    0.94240    0.26172    1.000
    H127     H        0.29910    0.94470    0.27190    1.000
    C193     C        0.26690    0.97830    0.23322    1.000
    H128     H        0.29490    0.00340    0.22390    1.000
    C194     C        0.30240    0.06700    0.12855    1.000
    C195     C        0.34690    0.05800    0.14252    1.000
    H129     H        0.34840    0.03990    0.16280    1.000
    C196     C        0.38820    0.07530    0.12704    1.000
    H130     H        0.41820    0.06790    0.13680    1.000
    C197     C        0.34540    0.11030    0.08454    1.000
    H131     H        0.34510    0.12920    0.06430    1.000
    C198     C        0.30200    0.09210    0.09831    1.000
    H132     H        0.27270    0.09650    0.08770    1.000
    C199     C        0.89430    0.70680    0.06620    1.000
    C200     C        0.89880    0.56930    0.03980    1.000
    C201     C        0.86150    0.57170    0.08444    1.000
    C202     C        0.90850    0.80980    0.06985    1.000
    C203     C        0.90550    0.85560    0.09695    1.000
    H133     H        0.89230    0.82300    0.11360    1.000
    C204     C        0.92170    0.94770    0.09947    1.000
    H134     H        0.91810    0.97940    0.11800    1.000
    C205     C        0.94520    0.95290    0.05102    1.000
    H135     H        0.95890    0.98720    0.03490    1.000
    C206     C        0.92930    0.86120    0.04588    1.000
    H136     H        0.93200    0.83260    0.02680    1.000
    C207     C        0.91500    0.51540    0.01396    1.000
    C208     C        0.93950    0.56190    0.99106    1.000
    H137     H        0.94700    0.62880    0.99270    1.000
    C209     C        0.95260    0.51150    0.96615    1.000
    H138     H        0.96950    0.54470    0.95090    1.000
    C210     C        0.92030    0.37080    0.98445    1.000
    H139     H        0.91400    0.30360    0.98230    1.000
    C211     C        0.90600    0.41810    0.01068    1.000
    H140     H        0.89020    0.38300    0.02600    1.000
    C212     C        0.83800    0.51780    0.10835    1.000
    C213     C        0.84040    0.41740    0.10930    1.000
    H141     H        0.85700    0.38290    0.09420    1.000
    C214     C        0.81920    0.36870    0.13180    1.000
    H142     H        0.82060    0.30000    0.13170    1.000
    C215     C        0.79280    0.50880    0.15313    1.000
    H143     H        0.77550    0.54070    0.16840    1.000
    C216     C        0.81260    0.56430    0.13162    1.000
    H144     H        0.80950    0.63280    0.13210    1.000
    N61      N        0.17600    0.02100    0.17546    1.000
    N62      N        0.26130    0.02530    0.17296    1.000
    N63      N        0.21560    0.06310    0.13037    1.000
    N64      N        0.04160    0.09050    0.10377    1.000
    N65      N        0.23120    0.90450    0.27559    1.000
    N66      N        0.38770    0.10260    0.09816    1.000
    N67      N        0.90930    0.66400    0.04149    1.000
    N68      N        0.87420    0.51990    0.06052    1.000
    N69      N        0.86970    0.66630    0.08820    1.000
    N70      N        0.94280    0.99750    0.07688    1.000
    N71      N        0.94270    0.41820    0.96240    1.000
    N72      N        0.79600    0.41330    0.15440    1.000
    Zn19     Zn       0.47652    0.37156    0.91532    1.000
    Zn20     Zn       0.73880    0.66908    0.68533    1.000
    Zn21     Zn       0.95148    0.35482    0.92169    1.000
    I37      I        0.49452    0.29842    0.96633    1.000
    I38      I        0.43073    0.28318    0.87528    1.000
    I39      I        0.69389    0.82905    0.69226    1.000
    I40      I        0.82676    0.66771    0.67010    1.000
    I41      I        0.94575    0.17243    0.92694    1.000
    I42      I        0.01626    0.44773    0.89445    1.000
    C217     C        0.67660    0.45290    0.85344    1.000
    C218     C        0.71980    0.48940    0.81267    1.000
    C219     C        0.75690    0.44980    0.85504    1.000
    C220     C        0.62930    0.44000    0.86850    1.000
    C221     C        0.62650    0.41940    0.89786    1.000
    H145     H        0.65510    0.41580    0.90930    1.000
    C222     C        0.58330    0.40360    0.91123    1.000
    H146     H        0.58260    0.38800    0.93170    1.000
    C223     C        0.54460    0.43230    0.86730    1.000
    H147     H        0.51550    0.43750    0.85640    1.000
    C224     C        0.58660    0.44860    0.85276    1.000
    H148     H        0.58670    0.46540    0.83230    1.000
    C225     C        0.72360    0.52250    0.78164    1.000
    C226     C        0.68300    0.55950    0.76716    1.000
    H149     H        0.65240    0.56000    0.77640    1.000
    C227     C        0.68960    0.59620    0.73823    1.000
    H150     H        0.66260    0.62270    0.72830    1.000
    C228     C        0.76920    0.55760    0.73828    1.000
    H151     H        0.79910    0.55530    0.72810    1.000
    C229     C        0.76690    0.52170    0.76678    1.000
    H152     H        0.79490    0.49660    0.77610    1.000
    C230     C        0.80240    0.43300    0.87145    1.000
    C231     C        0.84690    0.44200    0.85748    1.000
    H153     H        0.84840    0.46010    0.83720    1.000
    C232     C        0.88820    0.42470    0.87296    1.000
    H154     H        0.91820    0.43210    0.86320    1.000
    C233     C        0.84540    0.38970    0.91546    1.000
    H155     H        0.84510    0.37080    0.93570    1.000
    C234     C        0.80200    0.40790    0.90169    1.000
    H156     H        0.77270    0.40350    0.91230    1.000
    C235     C        0.39430    0.79320    0.93380    1.000
    C236     C        0.39880    0.93070    0.96020    1.000
    C237     C        0.36150    0.92830    0.91556    1.000
    C238     C        0.40850    0.69020    0.93015    1.000
    C239     C        0.40550    0.64440    0.90305    1.000
    H157     H        0.39230    0.67700    0.88640    1.000
    C240     C        0.42170    0.55230    0.90053    1.000
    H158     H        0.41810    0.52060    0.88200    1.000
    C241     C        0.44520    0.54710    0.94898    1.000
    H159     H        0.45890    0.51280    0.96510    1.000
    C242     C        0.42930    0.63880    0.95412    1.000
    H160     H        0.43200    0.66740    0.97320    1.000
    C243     C        0.41500    0.98460    0.98604    1.000
    C244     C        0.43950    0.93810    0.00894    1.000
    H161     H        0.44700    0.87120    0.00730    1.000
    C245     C        0.45260    0.98850    0.03385    1.000
    H162     H        0.46950    0.95530    0.04910    1.000
    C246     C        0.42030    0.12920    0.01555    1.000
    H163     H        0.41400    0.19640    0.01770    1.000
    C247     C        0.40600    0.08190    0.98932    1.000
    H164     H        0.39020    0.11700    0.97400    1.000
    C248     C        0.33800    0.98220    0.89165    1.000
    C249     C        0.34040    0.08260    0.89070    1.000
    H165     H        0.35700    0.11710    0.90580    1.000
    C250     C        0.31920    0.13130    0.86820    1.000
    H166     H        0.32060    0.20000    0.86830    1.000
    C251     C        0.29280    0.99120    0.84687    1.000
    H167     H        0.27550    0.95930    0.83160    1.000
    C252     C        0.31260    0.93570    0.86838    1.000
    H168     H        0.30950    0.86720    0.86790    1.000
    N73      N        0.67600    0.47900    0.82454    1.000
    N74      N        0.76130    0.47470    0.82704    1.000
    N75      N        0.71560    0.43690    0.86963    1.000
    N76      N        0.54160    0.40950    0.89623    1.000
    N77      N        0.73120    0.59550    0.72441    1.000
    N78      N        0.88770    0.39740    0.90184    1.000
    N79      N        0.40930    0.83600    0.95851    1.000
    N80      N        0.37420    0.98010    0.93948    1.000
    N81      N        0.36970    0.83370    0.91180    1.000
    N82      N        0.44280    0.50250    0.92312    1.000
    N83      N        0.44270    0.08180    0.03760    1.000
    N84      N        0.29600    0.08670    0.84560    1.000
    Zn22     Zn       0.02348    0.62844    0.41532    1.000
    Zn23     Zn       0.76120    0.33092    0.18533    1.000
    Zn24     Zn       0.54852    0.64518    0.42169    1.000
    I43      I        0.00548    0.70158    0.46633    1.000
    I44      I        0.06927    0.71682    0.37528    1.000
    I45      I        0.80611    0.17095    0.19226    1.000
    I46      I        0.67324    0.33229    0.17010    1.000
    I47      I        0.55425    0.82757    0.42694    1.000
    I48      I        0.48374    0.55227    0.39445    1.000
    C253     C        0.82340    0.54710    0.35344    1.000
    C254     C        0.78020    0.51060    0.31267    1.000
    C255     C        0.74310    0.55020    0.35504    1.000
    C256     C        0.87070    0.56000    0.36850    1.000
    C257     C        0.87350    0.58060    0.39786    1.000
    H169     H        0.84490    0.58420    0.40930    1.000
    C258     C        0.91670    0.59640    0.41123    1.000
    H170     H        0.91740    0.61200    0.43170    1.000
    C259     C        0.95540    0.56770    0.36730    1.000
    H171     H        0.98450    0.56250    0.35640    1.000
    C260     C        0.91340    0.55140    0.35276    1.000
    H172     H        0.91330    0.53460    0.33230    1.000
    C261     C        0.77640    0.47750    0.28164    1.000
    C262     C        0.81700    0.44050    0.26716    1.000
    H173     H        0.84760    0.44000    0.27640    1.000
    C263     C        0.81040    0.40380    0.23823    1.000
    H174     H        0.83740    0.37730    0.22830    1.000
    C264     C        0.73080    0.44240    0.23828    1.000
    H175     H        0.70090    0.44470    0.22810    1.000
    C265     C        0.73310    0.47830    0.26678    1.000
    H176     H        0.70510    0.50340    0.27610    1.000
    C266     C        0.69760    0.56700    0.37145    1.000
    C267     C        0.65310    0.55800    0.35748    1.000
    H177     H        0.65160    0.53990    0.33720    1.000
    C268     C        0.61180    0.57530    0.37296    1.000
    H178     H        0.58180    0.56790    0.36320    1.000
    C269     C        0.65460    0.61030    0.41546    1.000
    H179     H        0.65490    0.62920    0.43570    1.000
    C270     C        0.69800    0.59210    0.40169    1.000
    H180     H        0.72730    0.59650    0.41230    1.000
    C271     C        0.10570    0.20680    0.43380    1.000
    C272     C        0.10120    0.06930    0.46020    1.000
    C273     C        0.13850    0.07170    0.41556    1.000
    C274     C        0.09150    0.30980    0.43015    1.000
    C275     C        0.09450    0.35560    0.40305    1.000
    H181     H        0.10770    0.32300    0.38640    1.000
    C276     C        0.07830    0.44770    0.40053    1.000
    H182     H        0.08190    0.47940    0.38200    1.000
    C277     C        0.05480    0.45290    0.44898    1.000
    H183     H        0.04110    0.48720    0.46510    1.000
    C278     C        0.07070    0.36120    0.45412    1.000
    H184     H        0.06800    0.33260    0.47320    1.000
    C279     C        0.08500    0.01540    0.48604    1.000
    C280     C        0.06050    0.06190    0.50894    1.000
    H185     H        0.05300    0.12880    0.50730    1.000
    C281     C        0.04740    0.01150    0.53385    1.000
    H186     H        0.03050    0.04470    0.54910    1.000
    C282     C        0.07970    0.87080    0.51555    1.000
    H187     H        0.08600    0.80360    0.51770    1.000
    C283     C        0.09400    0.91810    0.48932    1.000
    H188     H        0.10980    0.88300    0.47400    1.000
    C284     C        0.16200    0.01780    0.39165    1.000
    C285     C        0.15960    0.91740    0.39070    1.000
    H189     H        0.14300    0.88290    0.40580    1.000
    C286     C        0.18080    0.86870    0.36820    1.000
    H190     H        0.17940    0.80000    0.36830    1.000
    C287     C        0.20720    0.00880    0.34687    1.000
    H191     H        0.22450    0.04070    0.33160    1.000
    C288     C        0.18740    0.06430    0.36838    1.000
    H192     H        0.19050    0.13280    0.36790    1.000
    N85      N        0.82400    0.52100    0.32454    1.000
    N86      N        0.73870    0.52530    0.32704    1.000
    N87      N        0.78440    0.56310    0.36963    1.000
    N88      N        0.95840    0.59050    0.39623    1.000
    N89      N        0.76880    0.40450    0.22441    1.000
    N90      N        0.61230    0.60260    0.40184    1.000
    N91      N        0.09070    0.16400    0.45851    1.000
    N92      N        0.12580    0.01990    0.43948    1.000
    N93      N        0.13030    0.16630    0.41180    1.000
    N94      N        0.05720    0.49750    0.42312    1.000
    N95      N        0.05730    0.91820    0.53760    1.000
    N96      N        0.20400    0.91330    0.34560    1.000
