# CIF file generated by openbabel 3.1.0, see https://openbabel.org
data_I
_chemical_name_common 'image0'
_cell_length_a 13.009
_cell_length_b 13.7701
_cell_length_c 15.0439
_cell_angle_alpha 99.513
_cell_angle_beta 90.402
_cell_angle_gamma 116.522
_space_group_name_H-M_alt 'P 1'
_space_group_name_Hall 'P 1'
loop_
    _symmetry_equiv_pos_as_xyz
    x,y,z
loop_
    _atom_site_label
    _atom_site_type_symbol
    _atom_site_fract_x
    _atom_site_fract_y
    _atom_site_fract_z
    _atom_site_occupancy
    C1       C        0.13670    0.07460    0.86700    1.000
    C2       C        0.23760    0.12540    0.81010    1.000
    C3       C        0.30690    0.23970    0.82910    1.000
    H1       H        0.28980    0.28390    0.87410    1.000
    C4       C        0.39970    0.28620    0.78120    1.000
    C5       C        0.42090    0.22080    0.70880    1.000
    H2       H        0.48360    0.25330    0.67590    1.000
    C6       C        0.34880    0.10760    0.68600    1.000
    C7       C        0.25660    0.06020    0.74050    1.000
    H3       H        0.20920    0.98430    0.72850    1.000
    C8       C        0.36430    0.03460    0.60860    1.000
    C9       C        0.44930    0.46580    0.86220    1.000
    H4       H        0.45090    0.44480    0.92040    1.000
    H5       H        0.37290    0.45810    0.84760    1.000
    C10      C        0.53820    0.58290    0.86570    1.000
    H6       H        0.53560    0.62970    0.92050    1.000
    H7       H        0.61470    0.58740    0.86520    1.000
    C11      C        0.57510    0.72710    0.78360    1.000
    C12      C        0.54140    0.76680    0.71550    1.000
    H8       H        0.47780    0.71840    0.67500    1.000
    C13      C        0.59980    0.87680    0.70620    1.000
    C14      C        0.69440    0.94950    0.76920    1.000
    H9       H        0.73310    0.02400    0.76570    1.000
    C15      C        0.73030    0.91030    0.83710    1.000
    C16      C        0.67300    0.79900    0.84280    1.000
    H10      H        0.69980    0.77240    0.88580    1.000
    C17      C        0.82910    0.98670    0.90440    1.000
    C18      C        0.56210    0.92200    0.63810    1.000
    N1       N        0.84370    0.63610    0.00690    1.000
    N2       N        0.27720    0.63660    0.51200    1.000
    O1       O        0.95270    0.68280    0.02450    1.000
    O2       O        0.80400    0.67870    0.95730    1.000
    O3       O        0.78320    0.55440    0.03650    1.000
    O4       O        0.10370    0.97450    0.87120    1.000
    O5       O        0.09790    0.13610    0.90630    1.000
    O6       O        0.47480    0.39740    0.79490    1.000
    O7       O        0.51210    0.61840    0.78700    1.000
    O8       O        0.88680    0.95110    0.94260    1.000
    O9       O        0.85090    0.08870    0.92460    1.000
    O10      O        0.62980    0.01500    0.62450    1.000
    O11      O        0.46010    0.86230    0.59770    1.000
    O12      O        0.28590    0.93900    0.58300    1.000
    O13      O        0.45400    0.07320    0.56810    1.000
    O14      O        0.22060    0.69290    0.52180    1.000
    O15      O        0.36310    0.67140    0.46840    1.000
    O16      O        0.24020    0.54840    0.53750    1.000
    Tb1      Tb       0.99092    0.85127    0.96030    1.000
    Tb2      Tb       0.35606    0.85596    0.46486    1.000
    C19      C        0.86330    0.92540    0.13300    1.000
    C20      C        0.76240    0.87460    0.18990    1.000
    C21      C        0.69310    0.76030    0.17090    1.000
    H11      H        0.71020    0.71610    0.12590    1.000
    C22      C        0.60030    0.71380    0.21880    1.000
    C23      C        0.57910    0.77920    0.29120    1.000
    H12      H        0.51640    0.74670    0.32410    1.000
    C24      C        0.65120    0.89240    0.31400    1.000
    C25      C        0.74340    0.93980    0.25950    1.000
    H13      H        0.79080    0.01570    0.27150    1.000
    C26      C        0.63570    0.96540    0.39140    1.000
    C27      C        0.55070    0.53420    0.13780    1.000
    H14      H        0.54910    0.55520    0.07960    1.000
    H15      H        0.62710    0.54190    0.15240    1.000
    C28      C        0.46180    0.41710    0.13430    1.000
    H16      H        0.46440    0.37030    0.07950    1.000
    H17      H        0.38530    0.41260    0.13480    1.000
    C29      C        0.42490    0.27290    0.21640    1.000
    C30      C        0.45860    0.23320    0.28450    1.000
    H18      H        0.52220    0.28160    0.32500    1.000
    C31      C        0.40020    0.12320    0.29380    1.000
    C32      C        0.30560    0.05050    0.23080    1.000
    H19      H        0.26690    0.97600    0.23430    1.000
    C33      C        0.26970    0.08970    0.16290    1.000
    C34      C        0.32700    0.20100    0.15720    1.000
    H20      H        0.30020    0.22760    0.11420    1.000
    C35      C        0.17090    0.01330    0.09560    1.000
    C36      C        0.43790    0.07800    0.36190    1.000
    N3       N        0.15630    0.36390    0.99310    1.000
    N4       N        0.72280    0.36340    0.48800    1.000
    O17      O        0.04730    0.31720    0.97550    1.000
    O18      O        0.19600    0.32130    0.04270    1.000
    O19      O        0.21680    0.44560    0.96350    1.000
    O20      O        0.89630    0.02550    0.12880    1.000
    O21      O        0.90210    0.86390    0.09370    1.000
    O22      O        0.52520    0.60260    0.20510    1.000
    O23      O        0.48790    0.38160    0.21300    1.000
    O24      O        0.11320    0.04890    0.05740    1.000
    O25      O        0.14910    0.91130    0.07540    1.000
    O26      O        0.37020    0.98500    0.37550    1.000
    O27      O        0.53990    0.13770    0.40230    1.000
    O28      O        0.71410    0.06100    0.41700    1.000
    O29      O        0.54600    0.92680    0.43190    1.000
    O30      O        0.77940    0.30710    0.47820    1.000
    O31      O        0.63690    0.32860    0.53160    1.000
    O32      O        0.75980    0.45160    0.46250    1.000
    Tb3      Tb       0.00908    0.14873    0.03970    1.000
    Tb4      Tb       0.64394    0.14404    0.53514    1.000
