# CIF file generated by openbabel 3.1.0, see https://openbabel.org
data_I
_chemical_name_common 'image0'
_cell_length_a 7.6391
_cell_length_b 21.127
_cell_length_c 19.578
_cell_angle_alpha 90
_cell_angle_beta 98.306
_cell_angle_gamma 90
_space_group_name_H-M_alt 'P 1'
_space_group_name_Hall 'P 1'
loop_
    _symmetry_equiv_pos_as_xyz
    x,y,z
loop_
    _atom_site_label
    _atom_site_type_symbol
    _atom_site_fract_x
    _atom_site_fract_y
    _atom_site_fract_z
    _atom_site_occupancy
    Pr1      Pr       0.98920    0.27663    0.25526    1.000
    O1       O        0.82810    0.32661    0.14707    1.000
    O2       O        0.70060    0.23927    0.17447    1.000
    C1       C        0.71640    0.28440    0.13170    1.000
    C2       C        0.60200    0.28480    0.06400    1.000
    C3       C        0.55290    0.34130    0.03200    1.000
    C4       C        0.54840    0.22820    0.03200    1.000
    O3       O        0.31570    0.28991    0.32307    1.000
    O4       O        0.09160    0.31790    0.37393    1.000
    C5       C        0.25560    0.31070    0.37620    1.000
    C6       C        0.37860    0.32230    0.43990    1.000
    C7       C        0.55830    0.32450    0.43720    1.000
    H1       H        0.59740    0.32530    0.39440    1.000
    C8       C        0.31750    0.32540    0.50330    1.000
    O5       O        0.23270    0.16728    0.28596    1.000
    O6       O        0.98200    0.16238    0.21770    1.000
    C9       C        0.11150    0.13550    0.25050    1.000
    C10      C        0.12110    0.06560    0.24990    1.000
    C11      C        0.24090    0.03310    0.29720    1.000
    C12      C        0.00460    0.03190    0.20240    1.000
    N1       N        0.63300    0.40040    0.05230    1.000
    N2       N        0.59800    0.17660    0.05640    1.000
    N3       N        0.36100    0.05740    0.34970    1.000
    N4       N        0.88000    0.05980    0.16080    1.000
    N5       N        0.14800    0.33880    0.50920    1.000
    Pr2      Pr       0.48920    0.77663    0.25526    1.000
    O7       O        0.32810    0.82661    0.14707    1.000
    O8       O        0.20060    0.73927    0.17447    1.000
    C13      C        0.21640    0.78440    0.13170    1.000
    C14      C        0.10200    0.78480    0.06400    1.000
    C15      C        0.05290    0.84130    0.03200    1.000
    C16      C        0.04840    0.72820    0.03200    1.000
    O9       O        0.81570    0.78991    0.32307    1.000
    O10      O        0.59160    0.81790    0.37393    1.000
    C17      C        0.75560    0.81070    0.37620    1.000
    C18      C        0.87860    0.82230    0.43990    1.000
    C19      C        0.05830    0.82450    0.43720    1.000
    H2       H        0.09740    0.82530    0.39440    1.000
    C20      C        0.81750    0.82540    0.50330    1.000
    O11      O        0.73270    0.66728    0.28596    1.000
    O12      O        0.48200    0.66238    0.21770    1.000
    C21      C        0.61150    0.63550    0.25050    1.000
    C22      C        0.62110    0.56560    0.24990    1.000
    C23      C        0.74090    0.53310    0.29720    1.000
    C24      C        0.50460    0.53190    0.20240    1.000
    N6       N        0.13300    0.90040    0.05230    1.000
    N7       N        0.09800    0.67660    0.05640    1.000
    N8       N        0.86100    0.55740    0.34970    1.000
    N9       N        0.38000    0.55980    0.16080    1.000
    N10      N        0.64800    0.83880    0.50920    1.000
    Pr3      Pr       0.01080    0.27663    0.74474    1.000
    O13      O        0.17190    0.32661    0.85293    1.000
    O14      O        0.29940    0.23927    0.82553    1.000
    C25      C        0.28360    0.28440    0.86830    1.000
    C26      C        0.39800    0.28480    0.93600    1.000
    C27      C        0.44710    0.34130    0.96800    1.000
    C28      C        0.45160    0.22820    0.96800    1.000
    O15      O        0.68430    0.28991    0.67693    1.000
    O16      O        0.90840    0.31790    0.62607    1.000
    C29      C        0.74440    0.31070    0.62380    1.000
    C30      C        0.62140    0.32230    0.56010    1.000
    C31      C        0.44170    0.32450    0.56280    1.000
    H3       H        0.40260    0.32530    0.60560    1.000
    C32      C        0.68250    0.32540    0.49670    1.000
    O17      O        0.76730    0.16728    0.71404    1.000
    O18      O        0.01800    0.16238    0.78230    1.000
    C33      C        0.88850    0.13550    0.74950    1.000
    C34      C        0.87890    0.06560    0.75010    1.000
    C35      C        0.75910    0.03310    0.70280    1.000
    C36      C        0.99540    0.03190    0.79760    1.000
    N11      N        0.36700    0.40040    0.94770    1.000
    N12      N        0.40200    0.17660    0.94360    1.000
    N13      N        0.63900    0.05740    0.65030    1.000
    N14      N        0.12000    0.05980    0.83920    1.000
    N15      N        0.85200    0.33880    0.49080    1.000
    Pr4      Pr       0.51080    0.77663    0.74474    1.000
    O19      O        0.67190    0.82661    0.85293    1.000
    O20      O        0.79940    0.73927    0.82553    1.000
    C37      C        0.78360    0.78440    0.86830    1.000
    C38      C        0.89800    0.78480    0.93600    1.000
    C39      C        0.94710    0.84130    0.96800    1.000
    C40      C        0.95160    0.72820    0.96800    1.000
    O21      O        0.18430    0.78991    0.67693    1.000
    O22      O        0.40840    0.81790    0.62607    1.000
    C41      C        0.24440    0.81070    0.62380    1.000
    C42      C        0.12140    0.82230    0.56010    1.000
    C43      C        0.94170    0.82450    0.56280    1.000
    H4       H        0.90260    0.82530    0.60560    1.000
    C44      C        0.18250    0.82540    0.49670    1.000
    O23      O        0.26730    0.66728    0.71404    1.000
    O24      O        0.51800    0.66238    0.78230    1.000
    C45      C        0.38850    0.63550    0.74950    1.000
    C46      C        0.37890    0.56560    0.75010    1.000
    C47      C        0.25910    0.53310    0.70280    1.000
    C48      C        0.49540    0.53190    0.79760    1.000
    N16      N        0.86700    0.90040    0.94770    1.000
    N17      N        0.90200    0.67660    0.94360    1.000
    N18      N        0.13900    0.55740    0.65030    1.000
    N19      N        0.62000    0.55980    0.83920    1.000
    N20      N        0.35200    0.83880    0.49080    1.000
    Pr5      Pr       0.01080    0.72337    0.74474    1.000
    O25      O        0.17190    0.67339    0.85293    1.000
    O26      O        0.29940    0.76073    0.82553    1.000
    C49      C        0.28360    0.71560    0.86830    1.000
    C50      C        0.39800    0.71520    0.93600    1.000
    C51      C        0.44710    0.65870    0.96800    1.000
    C52      C        0.45160    0.77180    0.96800    1.000
    O27      O        0.68430    0.71009    0.67693    1.000
    O28      O        0.90840    0.68210    0.62607    1.000
    C53      C        0.74440    0.68930    0.62380    1.000
    C54      C        0.62140    0.67770    0.56010    1.000
    C55      C        0.44170    0.67550    0.56280    1.000
    H5       H        0.40260    0.67470    0.60560    1.000
    C56      C        0.68250    0.67460    0.49670    1.000
    O29      O        0.76730    0.83272    0.71404    1.000
    O30      O        0.01800    0.83762    0.78230    1.000
    C57      C        0.88850    0.86450    0.74950    1.000
    C58      C        0.87890    0.93440    0.75010    1.000
    C59      C        0.75910    0.96690    0.70280    1.000
    C60      C        0.99540    0.96810    0.79760    1.000
    N21      N        0.36700    0.59960    0.94770    1.000
    N22      N        0.40200    0.82340    0.94360    1.000
    N23      N        0.63900    0.94260    0.65030    1.000
    N24      N        0.12000    0.94020    0.83920    1.000
    N25      N        0.85200    0.66120    0.49080    1.000
    Pr6      Pr       0.51080    0.22337    0.74474    1.000
    O31      O        0.67190    0.17339    0.85293    1.000
    O32      O        0.79940    0.26073    0.82553    1.000
    C61      C        0.78360    0.21560    0.86830    1.000
    C62      C        0.89800    0.21520    0.93600    1.000
    C63      C        0.94710    0.15870    0.96800    1.000
    C64      C        0.95160    0.27180    0.96800    1.000
    O33      O        0.18430    0.21009    0.67693    1.000
    O34      O        0.40840    0.18210    0.62607    1.000
    C65      C        0.24440    0.18930    0.62380    1.000
    C66      C        0.12140    0.17770    0.56010    1.000
    C67      C        0.94170    0.17550    0.56280    1.000
    H6       H        0.90260    0.17470    0.60560    1.000
    C68      C        0.18250    0.17460    0.49670    1.000
    O35      O        0.26730    0.33272    0.71404    1.000
    O36      O        0.51800    0.33762    0.78230    1.000
    C69      C        0.38850    0.36450    0.74950    1.000
    C70      C        0.37890    0.43440    0.75010    1.000
    C71      C        0.25910    0.46690    0.70280    1.000
    C72      C        0.49540    0.46810    0.79760    1.000
    N26      N        0.86700    0.09960    0.94770    1.000
    N27      N        0.90200    0.32340    0.94360    1.000
    N28      N        0.13900    0.44260    0.65030    1.000
    N29      N        0.62000    0.44020    0.83920    1.000
    N30      N        0.35200    0.16120    0.49080    1.000
    Pr7      Pr       0.98920    0.72337    0.25526    1.000
    O37      O        0.82810    0.67339    0.14707    1.000
    O38      O        0.70060    0.76073    0.17447    1.000
    C73      C        0.71640    0.71560    0.13170    1.000
    C74      C        0.60200    0.71520    0.06400    1.000
    C75      C        0.55290    0.65870    0.03200    1.000
    C76      C        0.54840    0.77180    0.03200    1.000
    O39      O        0.31570    0.71009    0.32307    1.000
    O40      O        0.09160    0.68210    0.37393    1.000
    C77      C        0.25560    0.68930    0.37620    1.000
    C78      C        0.37860    0.67770    0.43990    1.000
    C79      C        0.55830    0.67550    0.43720    1.000
    H7       H        0.59740    0.67470    0.39440    1.000
    C80      C        0.31750    0.67460    0.50330    1.000
    O41      O        0.23270    0.83272    0.28596    1.000
    O42      O        0.98200    0.83762    0.21770    1.000
    C81      C        0.11150    0.86450    0.25050    1.000
    C82      C        0.12110    0.93440    0.24990    1.000
    C83      C        0.24090    0.96690    0.29720    1.000
    C84      C        0.00460    0.96810    0.20240    1.000
    N31      N        0.63300    0.59960    0.05230    1.000
    N32      N        0.59800    0.82340    0.05640    1.000
    N33      N        0.36100    0.94260    0.34970    1.000
    N34      N        0.88000    0.94020    0.16080    1.000
    N35      N        0.14800    0.66120    0.50920    1.000
    Pr8      Pr       0.48920    0.22337    0.25526    1.000
    O43      O        0.32810    0.17339    0.14707    1.000
    O44      O        0.20060    0.26073    0.17447    1.000
    C85      C        0.21640    0.21560    0.13170    1.000
    C86      C        0.10200    0.21520    0.06400    1.000
    C87      C        0.05290    0.15870    0.03200    1.000
    C88      C        0.04840    0.27180    0.03200    1.000
    O45      O        0.81570    0.21009    0.32307    1.000
    O46      O        0.59160    0.18210    0.37393    1.000
    C89      C        0.75560    0.18930    0.37620    1.000
    C90      C        0.87860    0.17770    0.43990    1.000
    C91      C        0.05830    0.17550    0.43720    1.000
    H8       H        0.09740    0.17470    0.39440    1.000
    C92      C        0.81750    0.17460    0.50330    1.000
    O47      O        0.73270    0.33272    0.28596    1.000
    O48      O        0.48200    0.33762    0.21770    1.000
    C93      C        0.61150    0.36450    0.25050    1.000
    C94      C        0.62110    0.43440    0.24990    1.000
    C95      C        0.74090    0.46690    0.29720    1.000
    C96      C        0.50460    0.46810    0.20240    1.000
    N36      N        0.13300    0.09960    0.05230    1.000
    N37      N        0.09800    0.32340    0.05640    1.000
    N38      N        0.86100    0.44260    0.34970    1.000
    N39      N        0.38000    0.44020    0.16080    1.000
    N40      N        0.64800    0.16120    0.50920    1.000
