# CIF file generated by openbabel 3.1.0, see https://openbabel.org
data_I
_chemical_name_common 'XIHRIQ_clean'
_cell_length_a 10.725
_cell_length_b 13.331
_cell_length_c 15.2614
_cell_angle_alpha 65.641
_cell_angle_beta 86.004
_cell_angle_gamma 74.007
_space_group_name_H-M_alt 'P 1'
_space_group_name_Hall 'P 1'
loop_
    _symmetry_equiv_pos_as_xyz
    x,y,z
loop_
    _atom_site_label
    _atom_site_type_symbol
    _atom_site_fract_x
    _atom_site_fract_y
    _atom_site_fract_z
    _atom_site_occupancy
    Co1      Co       0.12862    0.01340    0.58857    1.000
    Co2      Co       0.87138    0.98660    0.41143    1.000
    H1       H        0.21170    0.75210    0.69780    1.000
    H2       H        0.14150    0.59980    0.80200    1.000
    H3       H        0.80210    0.81610    0.80180    1.000
    H4       H        0.87790    0.96640    0.69600    1.000
    H5       H        0.97040    0.51770    0.90330    1.000
    H6       H        0.84940    0.39640    0.92580    1.000
    H7       H        0.75450    0.25070    0.03130    1.000
    H8       H        0.61350    0.28380    0.14130    1.000
    H9       H        0.43650    0.58770    0.22300    1.000
    H10      H        0.51280    0.73550    0.11100    1.000
    H11      H        0.65810    0.70400    0.00460    1.000
    H12      H        0.30730    0.47030    0.23110    1.000
    H13      H        0.46050    0.16900    0.35370    1.000
    H14      H        0.37370    0.03860    0.47550    1.000
    H15      H        0.06200    0.27690    0.46530    1.000
    H16      H        0.14070    0.41350    0.34750    1.000
    H17      H        0.50960    0.92350    0.78160    1.000
    H18      H        0.61880    0.92330    0.90600    1.000
    H19      H        0.28650    0.08190    0.98220    1.000
    H20      H        0.17810    0.08030    0.85410    1.000
    H21      H        0.44780    0.39600    0.43330    1.000
    H22      H        0.60040    0.23500    0.44120    1.000
    H23      H        0.84470    0.29400    0.58550    1.000
    H24      H        0.68940    0.45730    0.57810    1.000
    H25      H        0.78830    0.24790    0.30220    1.000
    H26      H        0.85850    0.40020    0.19800    1.000
    H27      H        0.19790    0.18390    0.19820    1.000
    H28      H        0.12210    0.03360    0.30400    1.000
    H29      H        0.02960    0.48230    0.09670    1.000
    H30      H        0.15060    0.60360    0.07420    1.000
    H31      H        0.24550    0.74930    0.96870    1.000
    H32      H        0.38650    0.71620    0.85870    1.000
    H33      H        0.56350    0.41230    0.77700    1.000
    H34      H        0.48720    0.26450    0.88900    1.000
    H35      H        0.34190    0.29600    0.99540    1.000
    H36      H        0.69270    0.52970    0.76890    1.000
    H37      H        0.53950    0.83100    0.64630    1.000
    H38      H        0.62630    0.96140    0.52450    1.000
    H39      H        0.93800    0.72310    0.53470    1.000
    H40      H        0.85930    0.58650    0.65250    1.000
    H41      H        0.49040    0.07650    0.21840    1.000
    H42      H        0.38120    0.07670    0.09400    1.000
    H43      H        0.71350    0.91810    0.01780    1.000
    H44      H        0.82190    0.91970    0.14590    1.000
    H45      H        0.55220    0.60400    0.56670    1.000
    H46      H        0.39960    0.76500    0.55880    1.000
    H47      H        0.15530    0.70600    0.41450    1.000
    H48      H        0.31060    0.54270    0.42190    1.000
    C1       C        0.12780    0.76560    0.71900    1.000
    C2       C        0.08620    0.67340    0.78160    1.000
    C3       C        0.96210    0.69070    0.81380    1.000
    C4       C        0.88610    0.80130    0.78110    1.000
    C5       C        0.93190    0.89210    0.71760    1.000
    C6       C        0.91570    0.59160    0.88190    1.000
    C7       C        0.75500    0.51670    0.97360    1.000
    C8       C        0.79000    0.41040    0.96950    1.000
    C9       C        0.73280    0.32170    0.03420    1.000
    C10      C        0.64780    0.34200    0.09890    1.000
    C11      C        0.61110    0.44790    0.10300    1.000
    C12      C        0.52180    0.47200    0.17070    1.000
    C13      C        0.49040    0.57550    0.17580    1.000
    C14      C        0.53930    0.66330    0.11010    1.000
    C15      C        0.62390    0.64510    0.04580    1.000
    C16      C        0.66230    0.53750    0.03950    1.000
    C17      C        0.36190    0.39680    0.26170    1.000
    C18      C        0.31020    0.30730    0.33760    1.000
    C19      C        0.37970    0.19300    0.37590    1.000
    C20      C        0.32560    0.11490    0.44830    1.000
    C21      C        0.14320    0.25490    0.44270    1.000
    C22      C        0.18990    0.33750    0.37200    1.000
    C23      C        0.33440    0.99690    0.80530    1.000
    C24      C        0.46220    0.95470    0.82210    1.000
    C25      C        0.52930    0.95480    0.89760    1.000
    C26      C        0.46560    0.00040    0.95910    1.000
    C27      C        0.33300    0.04860    0.94270    1.000
    C28      C        0.26720    0.04710    0.86500    1.000
    C29      C        0.54960    0.44860    0.50240    1.000
    C30      C        0.52810    0.37710    0.46400    1.000
    C31      C        0.61940    0.27990    0.46890    1.000
    C32      C        0.73820    0.24850    0.51440    1.000
    C33      C        0.76420    0.31450    0.55440    1.000
    C34      C        0.67040    0.41360    0.54930    1.000
    C35      C        0.26460    0.99970    0.72340    1.000
    C36      C        0.83930    0.14300    0.51780    1.000
    C37      C        0.87220    0.23440    0.28100    1.000
    C38      C        0.91380    0.32660    0.21840    1.000
    C39      C        0.03790    0.30930    0.18620    1.000
    C40      C        0.11390    0.19870    0.21890    1.000
    C41      C        0.06810    0.10790    0.28240    1.000
    C42      C        0.08430    0.40840    0.11810    1.000
    C43      C        0.24500    0.48330    0.02640    1.000
    C44      C        0.21000    0.58960    0.03050    1.000
    C45      C        0.26720    0.67830    0.96580    1.000
    C46      C        0.35220    0.65800    0.90110    1.000
    C47      C        0.38890    0.55210    0.89700    1.000
    C48      C        0.47820    0.52800    0.82930    1.000
    C49      C        0.50960    0.42450    0.82420    1.000
    C50      C        0.46070    0.33670    0.88990    1.000
    C51      C        0.37610    0.35490    0.95420    1.000
    C52      C        0.33770    0.46250    0.96050    1.000
    C53      C        0.63810    0.60320    0.73830    1.000
    C54      C        0.68980    0.69270    0.66240    1.000
    C55      C        0.62030    0.80700    0.62410    1.000
    C56      C        0.67440    0.88510    0.55170    1.000
    C57      C        0.85680    0.74510    0.55730    1.000
    C58      C        0.81010    0.66250    0.62800    1.000
    C59      C        0.66560    0.00310    0.19470    1.000
    C60      C        0.53780    0.04530    0.17790    1.000
    C61      C        0.47070    0.04520    0.10240    1.000
    C62      C        0.53440    0.99960    0.04090    1.000
    C63      C        0.66700    0.95140    0.05730    1.000
    C64      C        0.73280    0.95290    0.13500    1.000
    C65      C        0.45040    0.55140    0.49760    1.000
    C66      C        0.47190    0.62290    0.53600    1.000
    C67      C        0.38060    0.72010    0.53110    1.000
    C68      C        0.26180    0.75150    0.48560    1.000
    C69      C        0.23580    0.68550    0.44560    1.000
    C70      C        0.32960    0.58640    0.45070    1.000
    C71      C        0.73540    0.00030    0.27660    1.000
    C72      C        0.16070    0.85700    0.48220    1.000
    N1       N        0.05360    0.87360    0.68710    1.000
    N2       N        0.79940    0.60960    0.91040    1.000
    N3       N        0.47810    0.37550    0.23780    1.000
    N4       N        0.20880    0.14370    0.48080    1.000
    N5       N        0.94640    0.12640    0.31290    1.000
    N6       N        0.20060    0.39040    0.08960    1.000
    N7       N        0.52190    0.62450    0.76220    1.000
    N8       N        0.79120    0.85630    0.51920    1.000
    O1       O        0.31540    0.94610    0.67680    1.000
    O2       O        0.14650    0.05960    0.70410    1.000
    O3       O        0.95140    0.12740    0.54910    1.000
    O4       O        0.80490    0.07940    0.48820    1.000
    O5       O        0.68460    0.05390    0.32320    1.000
    O6       O        0.85350    0.94040    0.29590    1.000
    O7       O        0.04860    0.87260    0.45090    1.000
    O8       O        0.19510    0.92060    0.51180    1.000
