# CIF file generated by openbabel 3.1.0, see https://openbabel.org
data_I
_chemical_name_common 'image0'
_cell_length_a 26.3796
_cell_length_b 27.5675
_cell_length_c 31.996
_cell_angle_alpha 90
_cell_angle_beta 112.541
_cell_angle_gamma 90
_space_group_name_H-M_alt 'P 1'
_space_group_name_Hall 'P 1'
loop_
    _symmetry_equiv_pos_as_xyz
    x,y,z
loop_
    _atom_site_label
    _atom_site_type_symbol
    _atom_site_fract_x
    _atom_site_fract_y
    _atom_site_fract_z
    _atom_site_occupancy
    Zn1      Zn       0.14904    0.38988    0.63953    1.000
    O1       O        0.07600    0.36730    0.60574    1.000
    O2       O        0.16700    0.44960    0.61690    1.000
    O3       O        0.16670    0.60800    0.20616    1.000
    O4       O        0.70120    0.84300    0.63650    1.000
    Zn2      Zn       0.03304    0.41992    0.56894    1.000
    Zn3      Zn       0.04202    0.34443    0.64688    1.000
    Zn4      Zn       0.07832    0.31559    0.56532    1.000
    C1       C        0.13270    0.47580    0.58510    1.000
    O5       O        0.08200    0.47350    0.57180    1.000
    O6       O        0.98150    0.44970    0.59080    1.000
    O7       O        0.99980    0.59370    0.00520    1.000
    O8       O        0.98700    0.39600    0.64390    1.000
    O9       O        0.09900    0.65550    0.20990    1.000
    O10      O        0.49080    0.79210    0.61360    1.000
    O11      O        0.52830    0.76420    0.56670    1.000
    O12      O        0.65070    0.78630    0.59020    1.000
    O13      O        0.04300    0.66330    0.00086    1.000
    C2       C        0.15520    0.51350    0.56120    1.000
    C3       C        0.97650    0.43790    0.62560    1.000
    C4       C        0.11760    0.53720    0.52380    1.000
    C5       C        0.21070    0.52500    0.57640    1.000
    C6       C        0.95270    0.47400    0.64840    1.000
    C7       C        0.13560    0.57240    0.50150    1.000
    C8       C        0.22860    0.56010    0.55410    1.000
    C9       C        0.95030    0.46350    0.68960    1.000
    C10      C        0.94020    0.51910    0.63080    1.000
    C11      C        0.19100    0.58380    0.51660    1.000
    H1       H        0.96050    0.43220    0.70250    1.000
    C12      C        0.93270    0.49890    0.71270    1.000
    C13      C        0.92490    0.55460    0.65360    1.000
    H2       H        0.94200    0.52630    0.60240    1.000
    C14      C        0.21370    0.61480    0.48910    1.000
    H3       H        0.92910    0.49110    0.74040    1.000
    C15      C        0.92040    0.54570    0.69480    1.000
    H4       H        0.91710    0.58620    0.64080    1.000
    C16      C        0.19100    0.61400    0.44210    1.000
    C17      C        0.25980    0.64300    0.51170    1.000
    C18      C        0.90550    0.58440    0.71890    1.000
    C19      C        0.21440    0.64130    0.41760    1.000
    C20      C        0.28310    0.67040    0.48720    1.000
    C21      C        0.92810    0.58550    0.76670    1.000
    C22      C        0.86880    0.62080    0.69640    1.000
    C23      C        0.26040    0.66960    0.44020    1.000
    C24      C        0.19040    0.64310    0.36810    1.000
    C25      C        0.34070    0.69200    0.51510    1.000
    H5       H        0.95270    0.56060    0.78300    1.000
    C26      C        0.91440    0.62380    0.79100    1.000
    C27      C        0.85370    0.65730    0.71780    1.000
    H6       H        0.85330    0.62020    0.66430    1.000
    C28      C        0.13470    0.64800    0.34230    1.000
    C29      C        0.22690    0.63450    0.34700    1.000
    C30      C        0.38580    0.68690    0.50320    1.000
    C31      C        0.34350    0.72280    0.55030    1.000
    C32      C        0.87840    0.65930    0.76630    1.000
    C33      C        0.93950    0.62410    0.84160    1.000
    C34      C        0.81470    0.69480    0.69160    1.000
    C35      C        0.11530    0.64410    0.29540    1.000
    C36      C        0.20760    0.63070    0.30010    1.000
    C37      C        0.43370    0.71260    0.52640    1.000
    C38      C        0.39140    0.74850    0.57360    1.000
    H7       H        0.86990    0.68550    0.78170    1.000
    C39      C        0.94360    0.58290    0.86650    1.000
    C40      C        0.94640    0.66950    0.86200    1.000
    C41      C        0.77210    0.68370    0.65280    1.000
    C42      C        0.81900    0.74270    0.70620    1.000
    C43      C        0.15180    0.63550    0.27440    1.000
    C44      C        0.43650    0.74340    0.56160    1.000
    H8       H        0.93110    0.55300    0.85130    1.000
    C45      C        0.96510    0.58390    0.91250    1.000
    C46      C        0.95980    0.66750    0.90840    1.000
    H9       H        0.77030    0.65180    0.64110    1.000
    C47      C        0.73140    0.71560    0.62930    1.000
    C48      C        0.78080    0.77660    0.68450    1.000
    H10      H        0.84970    0.75190    0.73240    1.000
    C49      C        0.13670    0.62480    0.22485    1.000
    C50      C        0.48970    0.76750    0.58220    1.000
    H11      H        0.96650    0.55510    0.92920    1.000
    C51      C        0.98540    0.62810    0.93530    1.000
    H12      H        0.70110    0.70570    0.60310    1.000
    C52      C        0.73610    0.76310    0.64540    1.000
    H13      H        0.78430    0.80890    0.69560    1.000
    C53      C        0.00960    0.62940    0.98530    1.000
    C54      C        0.69300    0.80050    0.62160    1.000
    C55      C        0.99030    0.66840    0.91100    1.000
    C56      C        0.96740    0.66520    0.86400    1.000
    C57      C        0.24700    0.57820    0.49060    1.000
    C58      C        0.22280    0.57860    0.44050    1.000
    C59      C        0.25030    0.60360    0.41950    1.000
    C60      C        0.29830    0.62830    0.44220    1.000
    C61      C        0.32040    0.62770    0.49050    1.000
    C62      C        0.29450    0.60090    0.51190    1.000
    C63      C        0.35900    0.66740    0.51150    1.000
    C64      C        0.40100    0.67210    0.49820    1.000
    C65      C        0.44600    0.70160    0.52050    1.000
    C66      C        0.44790    0.72730    0.55770    1.000
    C67      C        0.40570    0.72630    0.57200    1.000
    C68      C        0.36140    0.69280    0.54800    1.000
    C69      C        0.16760    0.61380    0.34310    1.000
    C70      C        0.14580    0.61320    0.29810    1.000
    C71      C        0.17930    0.61050    0.27120    1.000
    C72      C        0.23910    0.61010    0.29460    1.000
    C73      C        0.25800    0.60730    0.34400    1.000
    C74      C        0.22340    0.60700    0.36730    1.000
    C75      C        0.15970    0.55130    0.49660    1.000
    C76      C        0.13080    0.52160    0.51490    1.000
    C77      C        0.24750    0.52350    0.55490    1.000
    C78      C        0.21170    0.50820    0.57460    1.000
    C79      C        0.21670    0.54920    0.51600    1.000
    Zn5      Zn       0.64904    0.88988    0.63953    1.000
    O14      O        0.57600    0.86730    0.60574    1.000
    O15      O        0.66700    0.94960    0.61690    1.000
    O16      O        0.66670    0.10800    0.20616    1.000
    O17      O        0.20120    0.34300    0.63650    1.000
    Zn6      Zn       0.53304    0.91992    0.56894    1.000
    Zn7      Zn       0.54202    0.84443    0.64688    1.000
    Zn8      Zn       0.57832    0.81559    0.56532    1.000
    C80      C        0.63270    0.97580    0.58510    1.000
    O18      O        0.58200    0.97350    0.57180    1.000
    O19      O        0.48150    0.94970    0.59080    1.000
    O20      O        0.49980    0.09370    0.00520    1.000
    O21      O        0.48700    0.89600    0.64390    1.000
    O22      O        0.59900    0.15550    0.20990    1.000
    O23      O        0.99080    0.29210    0.61360    1.000
    O24      O        0.02830    0.26420    0.56670    1.000
    O25      O        0.15070    0.28630    0.59020    1.000
    O26      O        0.54300    0.16330    0.00086    1.000
    C81      C        0.65520    0.01350    0.56120    1.000
    C82      C        0.47650    0.93790    0.62560    1.000
    C83      C        0.61760    0.03720    0.52380    1.000
    C84      C        0.71070    0.02500    0.57640    1.000
    C85      C        0.45270    0.97400    0.64840    1.000
    C86      C        0.63560    0.07240    0.50150    1.000
    C87      C        0.72860    0.06010    0.55410    1.000
    C88      C        0.45030    0.96350    0.68960    1.000
    C89      C        0.44020    0.01910    0.63080    1.000
    C90      C        0.69100    0.08380    0.51660    1.000
    H14      H        0.46050    0.93220    0.70250    1.000
    C91      C        0.43270    0.99890    0.71270    1.000
    C92      C        0.42490    0.05460    0.65360    1.000
    H15      H        0.44200    0.02630    0.60240    1.000
    C93      C        0.71370    0.11480    0.48910    1.000
    H16      H        0.42910    0.99110    0.74040    1.000
    C94      C        0.42040    0.04570    0.69480    1.000
    H17      H        0.41710    0.08620    0.64080    1.000
    C95      C        0.69100    0.11400    0.44210    1.000
    C96      C        0.75980    0.14300    0.51170    1.000
    C97      C        0.40550    0.08440    0.71890    1.000
    C98      C        0.71440    0.14130    0.41760    1.000
    C99      C        0.78310    0.17040    0.48720    1.000
    C100     C        0.42810    0.08550    0.76670    1.000
    C101     C        0.36880    0.12080    0.69640    1.000
    C102     C        0.76040    0.16960    0.44020    1.000
    C103     C        0.69040    0.14310    0.36810    1.000
    C104     C        0.84070    0.19200    0.51510    1.000
    H18      H        0.45270    0.06060    0.78300    1.000
    C105     C        0.41440    0.12380    0.79100    1.000
    C106     C        0.35370    0.15730    0.71780    1.000
    H19      H        0.35330    0.12020    0.66430    1.000
    C107     C        0.63470    0.14800    0.34230    1.000
    C108     C        0.72690    0.13450    0.34700    1.000
    C109     C        0.88580    0.18690    0.50320    1.000
    C110     C        0.84350    0.22280    0.55030    1.000
    C111     C        0.37840    0.15930    0.76630    1.000
    C112     C        0.43950    0.12410    0.84160    1.000
    C113     C        0.31470    0.19480    0.69160    1.000
    C114     C        0.61530    0.14410    0.29540    1.000
    C115     C        0.70760    0.13070    0.30010    1.000
    C116     C        0.93370    0.21260    0.52640    1.000
    C117     C        0.89140    0.24850    0.57360    1.000
    H20      H        0.36990    0.18550    0.78170    1.000
    C118     C        0.44360    0.08290    0.86650    1.000
    C119     C        0.44640    0.16950    0.86200    1.000
    C120     C        0.27210    0.18370    0.65280    1.000
    C121     C        0.31900    0.24270    0.70620    1.000
    C122     C        0.65180    0.13550    0.27440    1.000
    C123     C        0.93650    0.24340    0.56160    1.000
    H21      H        0.43110    0.05300    0.85130    1.000
    C124     C        0.46510    0.08390    0.91250    1.000
    C125     C        0.45980    0.16750    0.90840    1.000
    H22      H        0.27030    0.15180    0.64110    1.000
    C126     C        0.23140    0.21560    0.62930    1.000
    C127     C        0.28080    0.27660    0.68450    1.000
    H23      H        0.34970    0.25190    0.73240    1.000
    C128     C        0.63670    0.12480    0.22485    1.000
    C129     C        0.98970    0.26750    0.58220    1.000
    H24      H        0.46650    0.05510    0.92920    1.000
    C130     C        0.48540    0.12810    0.93530    1.000
    H25      H        0.20110    0.20570    0.60310    1.000
    C131     C        0.23610    0.26310    0.64540    1.000
    H26      H        0.28430    0.30890    0.69560    1.000
    C132     C        0.50960    0.12940    0.98530    1.000
    C133     C        0.19300    0.30050    0.62160    1.000
    C134     C        0.49030    0.16840    0.91100    1.000
    C135     C        0.46740    0.16520    0.86400    1.000
    C136     C        0.74700    0.07820    0.49060    1.000
    C137     C        0.72280    0.07860    0.44050    1.000
    C138     C        0.75030    0.10360    0.41950    1.000
    C139     C        0.79830    0.12830    0.44220    1.000
    C140     C        0.82040    0.12770    0.49050    1.000
    C141     C        0.79450    0.10090    0.51190    1.000
    C142     C        0.85900    0.16740    0.51150    1.000
    C143     C        0.90100    0.17210    0.49820    1.000
    C144     C        0.94600    0.20160    0.52050    1.000
    C145     C        0.94790    0.22730    0.55770    1.000
    C146     C        0.90570    0.22630    0.57200    1.000
    C147     C        0.86140    0.19280    0.54800    1.000
    C148     C        0.66760    0.11380    0.34310    1.000
    C149     C        0.64580    0.11320    0.29810    1.000
    C150     C        0.67930    0.11050    0.27120    1.000
    C151     C        0.73910    0.11010    0.29460    1.000
    C152     C        0.75800    0.10730    0.34400    1.000
    C153     C        0.72340    0.10700    0.36730    1.000
    C154     C        0.65970    0.05130    0.49660    1.000
    C155     C        0.63080    0.02160    0.51490    1.000
    C156     C        0.74750    0.02350    0.55490    1.000
    C157     C        0.71170    0.00820    0.57460    1.000
    C158     C        0.71670    0.04920    0.51600    1.000
    Zn9      Zn       0.14904    0.61012    0.13953    1.000
    O27      O        0.07600    0.63270    0.10574    1.000
    O28      O        0.16700    0.55040    0.11690    1.000
    O29      O        0.16670    0.39200    0.70616    1.000
    O30      O        0.70120    0.15700    0.13650    1.000
    Zn10     Zn       0.03304    0.58008    0.06894    1.000
    Zn11     Zn       0.04202    0.65557    0.14688    1.000
    Zn12     Zn       0.07832    0.68441    0.06532    1.000
    C159     C        0.13270    0.52420    0.08510    1.000
    O31      O        0.08200    0.52650    0.07180    1.000
    O32      O        0.98150    0.55030    0.09080    1.000
    O33      O        0.99980    0.40630    0.50520    1.000
    O34      O        0.98700    0.60400    0.14390    1.000
    O35      O        0.09900    0.34450    0.70990    1.000
    O36      O        0.49080    0.20790    0.11360    1.000
    O37      O        0.52830    0.23580    0.06670    1.000
    O38      O        0.65070    0.21370    0.09020    1.000
    O39      O        0.04300    0.33670    0.50086    1.000
    C160     C        0.15520    0.48650    0.06120    1.000
    C161     C        0.97650    0.56210    0.12560    1.000
    C162     C        0.11760    0.46280    0.02380    1.000
    C163     C        0.21070    0.47500    0.07640    1.000
    C164     C        0.95270    0.52600    0.14840    1.000
    C165     C        0.13560    0.42760    0.00150    1.000
    C166     C        0.22860    0.43990    0.05410    1.000
    C167     C        0.95030    0.53650    0.18960    1.000
    C168     C        0.94020    0.48090    0.13080    1.000
    C169     C        0.19100    0.41620    0.01660    1.000
    H27      H        0.96050    0.56780    0.20250    1.000
    C170     C        0.93270    0.50110    0.21270    1.000
    C171     C        0.92490    0.44540    0.15360    1.000
    H28      H        0.94200    0.47370    0.10240    1.000
    C172     C        0.21370    0.38520    0.98910    1.000
    H29      H        0.92910    0.50890    0.24040    1.000
    C173     C        0.92040    0.45430    0.19480    1.000
    H30      H        0.91710    0.41380    0.14080    1.000
    C174     C        0.19100    0.38600    0.94210    1.000
    C175     C        0.25980    0.35700    0.01170    1.000
    C176     C        0.90550    0.41560    0.21890    1.000
    C177     C        0.21440    0.35870    0.91760    1.000
    C178     C        0.28310    0.32960    0.98720    1.000
    C179     C        0.92810    0.41450    0.26670    1.000
    C180     C        0.86880    0.37920    0.19640    1.000
    C181     C        0.26040    0.33040    0.94020    1.000
    C182     C        0.19040    0.35690    0.86810    1.000
    C183     C        0.34070    0.30800    0.01510    1.000
    H31      H        0.95270    0.43940    0.28300    1.000
    C184     C        0.91440    0.37620    0.29100    1.000
    C185     C        0.85370    0.34270    0.21780    1.000
    H32      H        0.85330    0.37980    0.16430    1.000
    C186     C        0.13470    0.35200    0.84230    1.000
    C187     C        0.22690    0.36550    0.84700    1.000
    C188     C        0.38580    0.31310    0.00320    1.000
    C189     C        0.34350    0.27720    0.05030    1.000
    C190     C        0.87840    0.34070    0.26630    1.000
    C191     C        0.93950    0.37590    0.34160    1.000
    C192     C        0.81470    0.30520    0.19160    1.000
    C193     C        0.11530    0.35590    0.79540    1.000
    C194     C        0.20760    0.36930    0.80010    1.000
    C195     C        0.43370    0.28740    0.02640    1.000
    C196     C        0.39140    0.25150    0.07360    1.000
    H33      H        0.86990    0.31450    0.28170    1.000
    C197     C        0.94360    0.41710    0.36650    1.000
    C198     C        0.94640    0.33050    0.36200    1.000
    C199     C        0.77210    0.31630    0.15280    1.000
    C200     C        0.81900    0.25730    0.20620    1.000
    C201     C        0.15180    0.36450    0.77440    1.000
    C202     C        0.43650    0.25660    0.06160    1.000
    H34      H        0.93110    0.44700    0.35130    1.000
    C203     C        0.96510    0.41610    0.41250    1.000
    C204     C        0.95980    0.33250    0.40840    1.000
    H35      H        0.77030    0.34820    0.14110    1.000
    C205     C        0.73140    0.28440    0.12930    1.000
    C206     C        0.78080    0.22340    0.18450    1.000
    H36      H        0.84970    0.24810    0.23240    1.000
    C207     C        0.13670    0.37520    0.72485    1.000
    C208     C        0.48970    0.23250    0.08220    1.000
    H37      H        0.96650    0.44490    0.42920    1.000
    C209     C        0.98540    0.37190    0.43530    1.000
    H38      H        0.70110    0.29430    0.10310    1.000
    C210     C        0.73610    0.23690    0.14540    1.000
    H39      H        0.78430    0.19110    0.19560    1.000
    C211     C        0.00960    0.37060    0.48530    1.000
    C212     C        0.69300    0.19950    0.12160    1.000
    C213     C        0.99030    0.33160    0.41100    1.000
    C214     C        0.96740    0.33480    0.36400    1.000
    C215     C        0.24700    0.42180    0.99060    1.000
    C216     C        0.22280    0.42140    0.94050    1.000
    C217     C        0.25030    0.39640    0.91950    1.000
    C218     C        0.29830    0.37170    0.94220    1.000
    C219     C        0.32040    0.37230    0.99050    1.000
    C220     C        0.29450    0.39910    0.01190    1.000
    C221     C        0.35900    0.33260    0.01150    1.000
    C222     C        0.40100    0.32790    0.99820    1.000
    C223     C        0.44600    0.29840    0.02050    1.000
    C224     C        0.44790    0.27270    0.05770    1.000
    C225     C        0.40570    0.27370    0.07200    1.000
    C226     C        0.36140    0.30720    0.04800    1.000
    C227     C        0.16760    0.38620    0.84310    1.000
    C228     C        0.14580    0.38680    0.79810    1.000
    C229     C        0.17930    0.38950    0.77120    1.000
    C230     C        0.23910    0.38990    0.79460    1.000
    C231     C        0.25800    0.39270    0.84400    1.000
    C232     C        0.22340    0.39300    0.86730    1.000
    C233     C        0.15970    0.44870    0.99660    1.000
    C234     C        0.13080    0.47840    0.01490    1.000
    C235     C        0.24750    0.47650    0.05490    1.000
    C236     C        0.21170    0.49180    0.07460    1.000
    C237     C        0.21670    0.45080    0.01600    1.000
    Zn13     Zn       0.64904    0.11012    0.13953    1.000
    O40      O        0.57600    0.13270    0.10574    1.000
    O41      O        0.66700    0.05040    0.11690    1.000
    O42      O        0.66670    0.89200    0.70616    1.000
    O43      O        0.20120    0.65700    0.13650    1.000
    Zn14     Zn       0.53304    0.08008    0.06894    1.000
    Zn15     Zn       0.54202    0.15557    0.14688    1.000
    Zn16     Zn       0.57832    0.18441    0.06532    1.000
    C238     C        0.63270    0.02420    0.08510    1.000
    O44      O        0.58200    0.02650    0.07180    1.000
    O45      O        0.48150    0.05030    0.09080    1.000
    O46      O        0.49980    0.90630    0.50520    1.000
    O47      O        0.48700    0.10400    0.14390    1.000
    O48      O        0.59900    0.84450    0.70990    1.000
    O49      O        0.99080    0.70790    0.11360    1.000
    O50      O        0.02830    0.73580    0.06670    1.000
    O51      O        0.15070    0.71370    0.09020    1.000
    O52      O        0.54300    0.83670    0.50086    1.000
    C239     C        0.65520    0.98650    0.06120    1.000
    C240     C        0.47650    0.06210    0.12560    1.000
    C241     C        0.61760    0.96280    0.02380    1.000
    C242     C        0.71070    0.97500    0.07640    1.000
    C243     C        0.45270    0.02600    0.14840    1.000
    C244     C        0.63560    0.92760    0.00150    1.000
    C245     C        0.72860    0.93990    0.05410    1.000
    C246     C        0.45030    0.03650    0.18960    1.000
    C247     C        0.44020    0.98090    0.13080    1.000
    C248     C        0.69100    0.91620    0.01660    1.000
    H40      H        0.46050    0.06780    0.20250    1.000
    C249     C        0.43270    0.00110    0.21270    1.000
    C250     C        0.42490    0.94540    0.15360    1.000
    H41      H        0.44200    0.97370    0.10240    1.000
    C251     C        0.71370    0.88520    0.98910    1.000
    H42      H        0.42910    0.00890    0.24040    1.000
    C252     C        0.42040    0.95430    0.19480    1.000
    H43      H        0.41710    0.91380    0.14080    1.000
    C253     C        0.69100    0.88600    0.94210    1.000
    C254     C        0.75980    0.85700    0.01170    1.000
    C255     C        0.40550    0.91560    0.21890    1.000
    C256     C        0.71440    0.85870    0.91760    1.000
    C257     C        0.78310    0.82960    0.98720    1.000
    C258     C        0.42810    0.91450    0.26670    1.000
    C259     C        0.36880    0.87920    0.19640    1.000
    C260     C        0.76040    0.83040    0.94020    1.000
    C261     C        0.69040    0.85690    0.86810    1.000
    C262     C        0.84070    0.80800    0.01510    1.000
    H44      H        0.45270    0.93940    0.28300    1.000
    C263     C        0.41440    0.87620    0.29100    1.000
    C264     C        0.35370    0.84270    0.21780    1.000
    H45      H        0.35330    0.87980    0.16430    1.000
    C265     C        0.63470    0.85200    0.84230    1.000
    C266     C        0.72690    0.86550    0.84700    1.000
    C267     C        0.88580    0.81310    0.00320    1.000
    C268     C        0.84350    0.77720    0.05030    1.000
    C269     C        0.37840    0.84070    0.26630    1.000
    C270     C        0.43950    0.87590    0.34160    1.000
    C271     C        0.31470    0.80520    0.19160    1.000
    C272     C        0.61530    0.85590    0.79540    1.000
    C273     C        0.70760    0.86930    0.80010    1.000
    C274     C        0.93370    0.78740    0.02640    1.000
    C275     C        0.89140    0.75150    0.07360    1.000
    H46      H        0.36990    0.81450    0.28170    1.000
    C276     C        0.44360    0.91710    0.36650    1.000
    C277     C        0.44640    0.83050    0.36200    1.000
    C278     C        0.27210    0.81630    0.15280    1.000
    C279     C        0.31900    0.75730    0.20620    1.000
    C280     C        0.65180    0.86450    0.77440    1.000
    C281     C        0.93650    0.75660    0.06160    1.000
    H47      H        0.43110    0.94700    0.35130    1.000
    C282     C        0.46510    0.91610    0.41250    1.000
    C283     C        0.45980    0.83250    0.40840    1.000
    H48      H        0.27030    0.84820    0.14110    1.000
    C284     C        0.23140    0.78440    0.12930    1.000
    C285     C        0.28080    0.72340    0.18450    1.000
    H49      H        0.34970    0.74810    0.23240    1.000
    C286     C        0.63670    0.87520    0.72485    1.000
    C287     C        0.98970    0.73250    0.08220    1.000
    H50      H        0.46650    0.94490    0.42920    1.000
    C288     C        0.48540    0.87190    0.43530    1.000
    H51      H        0.20110    0.79430    0.10310    1.000
    C289     C        0.23610    0.73690    0.14540    1.000
    H52      H        0.28430    0.69110    0.19560    1.000
    C290     C        0.50960    0.87060    0.48530    1.000
    C291     C        0.19300    0.69950    0.12160    1.000
    C292     C        0.49030    0.83160    0.41100    1.000
    C293     C        0.46740    0.83480    0.36400    1.000
    C294     C        0.74700    0.92180    0.99060    1.000
    C295     C        0.72280    0.92140    0.94050    1.000
    C296     C        0.75030    0.89640    0.91950    1.000
    C297     C        0.79830    0.87170    0.94220    1.000
    C298     C        0.82040    0.87230    0.99050    1.000
    C299     C        0.79450    0.89910    0.01190    1.000
    C300     C        0.85900    0.83260    0.01150    1.000
    C301     C        0.90100    0.82790    0.99820    1.000
    C302     C        0.94600    0.79840    0.02050    1.000
    C303     C        0.94790    0.77270    0.05770    1.000
    C304     C        0.90570    0.77370    0.07200    1.000
    C305     C        0.86140    0.80720    0.04800    1.000
    C306     C        0.66760    0.88620    0.84310    1.000
    C307     C        0.64580    0.88680    0.79810    1.000
    C308     C        0.67930    0.88950    0.77120    1.000
    C309     C        0.73910    0.88990    0.79460    1.000
    C310     C        0.75800    0.89270    0.84400    1.000
    C311     C        0.72340    0.89300    0.86730    1.000
    C312     C        0.65970    0.94870    0.99660    1.000
    C313     C        0.63080    0.97840    0.01490    1.000
    C314     C        0.74750    0.97650    0.05490    1.000
    C315     C        0.71170    0.99180    0.07460    1.000
    C316     C        0.71670    0.95080    0.01600    1.000
    Zn17     Zn       0.85096    0.38988    0.86047    1.000
    O53      O        0.92400    0.36730    0.89426    1.000
    O54      O        0.83300    0.44960    0.88310    1.000
    O55      O        0.83330    0.60800    0.29384    1.000
    O56      O        0.29880    0.84300    0.86350    1.000
    Zn18     Zn       0.96696    0.41992    0.93106    1.000
    Zn19     Zn       0.95798    0.34443    0.85312    1.000
    Zn20     Zn       0.92168    0.31559    0.93468    1.000
    C317     C        0.86730    0.47580    0.91490    1.000
    O57      O        0.91800    0.47350    0.92820    1.000
    O58      O        0.01850    0.44970    0.90920    1.000
    O59      O        0.00020    0.59370    0.49480    1.000
    O60      O        0.01300    0.39600    0.85610    1.000
    O61      O        0.90100    0.65550    0.29010    1.000
    O62      O        0.50920    0.79210    0.88640    1.000
    O63      O        0.47170    0.76420    0.93330    1.000
    O64      O        0.34930    0.78630    0.90980    1.000
    O65      O        0.95700    0.66330    0.49914    1.000
    C318     C        0.84480    0.51350    0.93880    1.000
    C319     C        0.02350    0.43790    0.87440    1.000
    C320     C        0.88240    0.53720    0.97620    1.000
    C321     C        0.78930    0.52500    0.92360    1.000
    C322     C        0.04730    0.47400    0.85160    1.000
    C323     C        0.86440    0.57240    0.99850    1.000
    C324     C        0.77140    0.56010    0.94590    1.000
    C325     C        0.04970    0.46350    0.81040    1.000
    C326     C        0.05980    0.51910    0.86920    1.000
    C327     C        0.80900    0.58380    0.98340    1.000
    H53      H        0.03950    0.43220    0.79750    1.000
    C328     C        0.06730    0.49890    0.78730    1.000
    C329     C        0.07510    0.55460    0.84640    1.000
    H54      H        0.05800    0.52630    0.89760    1.000
    C330     C        0.78630    0.61480    0.01090    1.000
    H55      H        0.07090    0.49110    0.75960    1.000
    C331     C        0.07960    0.54570    0.80520    1.000
    H56      H        0.08290    0.58620    0.85920    1.000
    C332     C        0.80900    0.61400    0.05790    1.000
    C333     C        0.74020    0.64300    0.98830    1.000
    C334     C        0.09450    0.58440    0.78110    1.000
    C335     C        0.78560    0.64130    0.08240    1.000
    C336     C        0.71690    0.67040    0.01280    1.000
    C337     C        0.07190    0.58550    0.73330    1.000
    C338     C        0.13120    0.62080    0.80360    1.000
    C339     C        0.73960    0.66960    0.05980    1.000
    C340     C        0.80960    0.64310    0.13190    1.000
    C341     C        0.65930    0.69200    0.98490    1.000
    H57      H        0.04730    0.56060    0.71700    1.000
    C342     C        0.08560    0.62380    0.70900    1.000
    C343     C        0.14630    0.65730    0.78220    1.000
    H58      H        0.14670    0.62020    0.83570    1.000
    C344     C        0.86530    0.64800    0.15770    1.000
    C345     C        0.77310    0.63450    0.15300    1.000
    C346     C        0.61420    0.68690    0.99680    1.000
    C347     C        0.65650    0.72280    0.94970    1.000
    C348     C        0.12160    0.65930    0.73370    1.000
    C349     C        0.06050    0.62410    0.65840    1.000
    C350     C        0.18530    0.69480    0.80840    1.000
    C351     C        0.88470    0.64410    0.20460    1.000
    C352     C        0.79240    0.63070    0.19990    1.000
    C353     C        0.56630    0.71260    0.97360    1.000
    C354     C        0.60860    0.74850    0.92640    1.000
    H59      H        0.13010    0.68550    0.71830    1.000
    C355     C        0.05640    0.58290    0.63350    1.000
    C356     C        0.05360    0.66950    0.63800    1.000
    C357     C        0.22790    0.68370    0.84720    1.000
    C358     C        0.18100    0.74270    0.79380    1.000
    C359     C        0.84820    0.63550    0.22560    1.000
    C360     C        0.56350    0.74340    0.93840    1.000
    H60      H        0.06890    0.55300    0.64870    1.000
    C361     C        0.03490    0.58390    0.58750    1.000
    C362     C        0.04020    0.66750    0.59160    1.000
    H61      H        0.22970    0.65180    0.85890    1.000
    C363     C        0.26860    0.71560    0.87070    1.000
    C364     C        0.21920    0.77660    0.81550    1.000
    H62      H        0.15030    0.75190    0.76760    1.000
    C365     C        0.86330    0.62480    0.27515    1.000
    C366     C        0.51030    0.76750    0.91780    1.000
    H63      H        0.03350    0.55510    0.57080    1.000
    C367     C        0.01460    0.62810    0.56470    1.000
    H64      H        0.29890    0.70570    0.89690    1.000
    C368     C        0.26390    0.76310    0.85460    1.000
    H65      H        0.21570    0.80890    0.80440    1.000
    C369     C        0.99040    0.62940    0.51470    1.000
    C370     C        0.30700    0.80050    0.87840    1.000
    C371     C        0.00970    0.66840    0.58900    1.000
    C372     C        0.03260    0.66520    0.63600    1.000
    C373     C        0.75300    0.57820    0.00940    1.000
    C374     C        0.77720    0.57860    0.05950    1.000
    C375     C        0.74970    0.60360    0.08050    1.000
    C376     C        0.70170    0.62830    0.05780    1.000
    C377     C        0.67960    0.62770    0.00950    1.000
    C378     C        0.70550    0.60090    0.98810    1.000
    C379     C        0.64100    0.66740    0.98850    1.000
    C380     C        0.59900    0.67210    0.00180    1.000
    C381     C        0.55400    0.70160    0.97950    1.000
    C382     C        0.55210    0.72730    0.94230    1.000
    C383     C        0.59430    0.72630    0.92800    1.000
    C384     C        0.63860    0.69280    0.95200    1.000
    C385     C        0.83240    0.61380    0.15690    1.000
    C386     C        0.85420    0.61320    0.20190    1.000
    C387     C        0.82070    0.61050    0.22880    1.000
    C388     C        0.76090    0.61010    0.20540    1.000
    C389     C        0.74200    0.60730    0.15600    1.000
    C390     C        0.77660    0.60700    0.13270    1.000
    C391     C        0.84030    0.55130    0.00340    1.000
    C392     C        0.86920    0.52160    0.98510    1.000
    C393     C        0.75250    0.52350    0.94510    1.000
    C394     C        0.78830    0.50820    0.92540    1.000
    C395     C        0.78330    0.54920    0.98400    1.000
    Zn21     Zn       0.35096    0.88988    0.86047    1.000
    O66      O        0.42400    0.86730    0.89426    1.000
    O67      O        0.33300    0.94960    0.88310    1.000
    O68      O        0.33330    0.10800    0.29384    1.000
    O69      O        0.79880    0.34300    0.86350    1.000
    Zn22     Zn       0.46696    0.91992    0.93106    1.000
    Zn23     Zn       0.45798    0.84443    0.85312    1.000
    Zn24     Zn       0.42168    0.81559    0.93468    1.000
    C396     C        0.36730    0.97580    0.91490    1.000
    O70      O        0.41800    0.97350    0.92820    1.000
    O71      O        0.51850    0.94970    0.90920    1.000
    O72      O        0.50020    0.09370    0.49480    1.000
    O73      O        0.51300    0.89600    0.85610    1.000
    O74      O        0.40100    0.15550    0.29010    1.000
    O75      O        0.00920    0.29210    0.88640    1.000
    O76      O        0.97170    0.26420    0.93330    1.000
    O77      O        0.84930    0.28630    0.90980    1.000
    O78      O        0.45700    0.16330    0.49914    1.000
    C397     C        0.34480    0.01350    0.93880    1.000
    C398     C        0.52350    0.93790    0.87440    1.000
    C399     C        0.38240    0.03720    0.97620    1.000
    C400     C        0.28930    0.02500    0.92360    1.000
    C401     C        0.54730    0.97400    0.85160    1.000
    C402     C        0.36440    0.07240    0.99850    1.000
    C403     C        0.27140    0.06010    0.94590    1.000
    C404     C        0.54970    0.96350    0.81040    1.000
    C405     C        0.55980    0.01910    0.86920    1.000
    C406     C        0.30900    0.08380    0.98340    1.000
    H66      H        0.53950    0.93220    0.79750    1.000
    C407     C        0.56730    0.99890    0.78730    1.000
    C408     C        0.57510    0.05460    0.84640    1.000
    H67      H        0.55800    0.02630    0.89760    1.000
    C409     C        0.28630    0.11480    0.01090    1.000
    H68      H        0.57090    0.99110    0.75960    1.000
    C410     C        0.57960    0.04570    0.80520    1.000
    H69      H        0.58290    0.08620    0.85920    1.000
    C411     C        0.30900    0.11400    0.05790    1.000
    C412     C        0.24020    0.14300    0.98830    1.000
    C413     C        0.59450    0.08440    0.78110    1.000
    C414     C        0.28560    0.14130    0.08240    1.000
    C415     C        0.21690    0.17040    0.01280    1.000
    C416     C        0.57190    0.08550    0.73330    1.000
    C417     C        0.63120    0.12080    0.80360    1.000
    C418     C        0.23960    0.16960    0.05980    1.000
    C419     C        0.30960    0.14310    0.13190    1.000
    C420     C        0.15930    0.19200    0.98490    1.000
    H70      H        0.54730    0.06060    0.71700    1.000
    C421     C        0.58560    0.12380    0.70900    1.000
    C422     C        0.64630    0.15730    0.78220    1.000
    H71      H        0.64670    0.12020    0.83570    1.000
    C423     C        0.36530    0.14800    0.15770    1.000
    C424     C        0.27310    0.13450    0.15300    1.000
    C425     C        0.11420    0.18690    0.99680    1.000
    C426     C        0.15650    0.22280    0.94970    1.000
    C427     C        0.62160    0.15930    0.73370    1.000
    C428     C        0.56050    0.12410    0.65840    1.000
    C429     C        0.68530    0.19480    0.80840    1.000
    C430     C        0.38470    0.14410    0.20460    1.000
    C431     C        0.29240    0.13070    0.19990    1.000
    C432     C        0.06630    0.21260    0.97360    1.000
    C433     C        0.10860    0.24850    0.92640    1.000
    H72      H        0.63010    0.18550    0.71830    1.000
    C434     C        0.55640    0.08290    0.63350    1.000
    C435     C        0.55360    0.16950    0.63800    1.000
    C436     C        0.72790    0.18370    0.84720    1.000
    C437     C        0.68100    0.24270    0.79380    1.000
    C438     C        0.34820    0.13550    0.22560    1.000
    C439     C        0.06350    0.24340    0.93840    1.000
    H73      H        0.56890    0.05300    0.64870    1.000
    C440     C        0.53490    0.08390    0.58750    1.000
    C441     C        0.54020    0.16750    0.59160    1.000
    H74      H        0.72970    0.15180    0.85890    1.000
    C442     C        0.76860    0.21560    0.87070    1.000
    C443     C        0.71920    0.27660    0.81550    1.000
    H75      H        0.65030    0.25190    0.76760    1.000
    C444     C        0.36330    0.12480    0.27515    1.000
    C445     C        0.01030    0.26750    0.91780    1.000
    H76      H        0.53350    0.05510    0.57080    1.000
    C446     C        0.51460    0.12810    0.56470    1.000
    H77      H        0.79890    0.20570    0.89690    1.000
    C447     C        0.76390    0.26310    0.85460    1.000
    H78      H        0.71570    0.30890    0.80440    1.000
    C448     C        0.49040    0.12940    0.51470    1.000
    C449     C        0.80700    0.30050    0.87840    1.000
    C450     C        0.50970    0.16840    0.58900    1.000
    C451     C        0.53260    0.16520    0.63600    1.000
    C452     C        0.25300    0.07820    0.00940    1.000
    C453     C        0.27720    0.07860    0.05950    1.000
    C454     C        0.24970    0.10360    0.08050    1.000
    C455     C        0.20170    0.12830    0.05780    1.000
    C456     C        0.17960    0.12770    0.00950    1.000
    C457     C        0.20550    0.10090    0.98810    1.000
    C458     C        0.14100    0.16740    0.98850    1.000
    C459     C        0.09900    0.17210    0.00180    1.000
    C460     C        0.05400    0.20160    0.97950    1.000
    C461     C        0.05210    0.22730    0.94230    1.000
    C462     C        0.09430    0.22630    0.92800    1.000
    C463     C        0.13860    0.19280    0.95200    1.000
    C464     C        0.33240    0.11380    0.15690    1.000
    C465     C        0.35420    0.11320    0.20190    1.000
    C466     C        0.32070    0.11050    0.22880    1.000
    C467     C        0.26090    0.11010    0.20540    1.000
    C468     C        0.24200    0.10730    0.15600    1.000
    C469     C        0.27660    0.10700    0.13270    1.000
    C470     C        0.34030    0.05130    0.00340    1.000
    C471     C        0.36920    0.02160    0.98510    1.000
    C472     C        0.25250    0.02350    0.94510    1.000
    C473     C        0.28830    0.00820    0.92540    1.000
    C474     C        0.28330    0.04920    0.98400    1.000
    Zn25     Zn       0.85096    0.61012    0.36047    1.000
    O79      O        0.92400    0.63270    0.39426    1.000
    O80      O        0.83300    0.55040    0.38310    1.000
    O81      O        0.83330    0.39200    0.79384    1.000
    O82      O        0.29880    0.15700    0.36350    1.000
    Zn26     Zn       0.96696    0.58008    0.43106    1.000
    Zn27     Zn       0.95798    0.65557    0.35312    1.000
    Zn28     Zn       0.92168    0.68441    0.43468    1.000
    C475     C        0.86730    0.52420    0.41490    1.000
    O83      O        0.91800    0.52650    0.42820    1.000
    O84      O        0.01850    0.55030    0.40920    1.000
    O85      O        0.00020    0.40630    0.99480    1.000
    O86      O        0.01300    0.60400    0.35610    1.000
    O87      O        0.90100    0.34450    0.79010    1.000
    O88      O        0.50920    0.20790    0.38640    1.000
    O89      O        0.47170    0.23580    0.43330    1.000
    O90      O        0.34930    0.21370    0.40980    1.000
    O91      O        0.95700    0.33670    0.99914    1.000
    C476     C        0.84480    0.48650    0.43880    1.000
    C477     C        0.02350    0.56210    0.37440    1.000
    C478     C        0.88240    0.46280    0.47620    1.000
    C479     C        0.78930    0.47500    0.42360    1.000
    C480     C        0.04730    0.52600    0.35160    1.000
    C481     C        0.86440    0.42760    0.49850    1.000
    C482     C        0.77140    0.43990    0.44590    1.000
    C483     C        0.04970    0.53650    0.31040    1.000
    C484     C        0.05980    0.48090    0.36920    1.000
    C485     C        0.80900    0.41620    0.48340    1.000
    H79      H        0.03950    0.56780    0.29750    1.000
    C486     C        0.06730    0.50110    0.28730    1.000
    C487     C        0.07510    0.44540    0.34640    1.000
    H80      H        0.05800    0.47370    0.39760    1.000
    C488     C        0.78630    0.38520    0.51090    1.000
    H81      H        0.07090    0.50890    0.25960    1.000
    C489     C        0.07960    0.45430    0.30520    1.000
    H82      H        0.08290    0.41380    0.35920    1.000
    C490     C        0.80900    0.38600    0.55790    1.000
    C491     C        0.74020    0.35700    0.48830    1.000
    C492     C        0.09450    0.41560    0.28110    1.000
    C493     C        0.78560    0.35870    0.58240    1.000
    C494     C        0.71690    0.32960    0.51280    1.000
    C495     C        0.07190    0.41450    0.23330    1.000
    C496     C        0.13120    0.37920    0.30360    1.000
    C497     C        0.73960    0.33040    0.55980    1.000
    C498     C        0.80960    0.35690    0.63190    1.000
    C499     C        0.65930    0.30800    0.48490    1.000
    H83      H        0.04730    0.43940    0.21700    1.000
    C500     C        0.08560    0.37620    0.20900    1.000
    C501     C        0.14630    0.34270    0.28220    1.000
    H84      H        0.14670    0.37980    0.33570    1.000
    C502     C        0.86530    0.35200    0.65770    1.000
    C503     C        0.77310    0.36550    0.65300    1.000
    C504     C        0.61420    0.31310    0.49680    1.000
    C505     C        0.65650    0.27720    0.44970    1.000
    C506     C        0.12160    0.34070    0.23370    1.000
    C507     C        0.06050    0.37590    0.15840    1.000
    C508     C        0.18530    0.30520    0.30840    1.000
    C509     C        0.88470    0.35590    0.70460    1.000
    C510     C        0.79240    0.36930    0.69990    1.000
    C511     C        0.56630    0.28740    0.47360    1.000
    C512     C        0.60860    0.25150    0.42640    1.000
    H85      H        0.13010    0.31450    0.21830    1.000
    C513     C        0.05640    0.41710    0.13350    1.000
    C514     C        0.05360    0.33050    0.13800    1.000
    C515     C        0.22790    0.31630    0.34720    1.000
    C516     C        0.18100    0.25730    0.29380    1.000
    C517     C        0.84820    0.36450    0.72560    1.000
    C518     C        0.56350    0.25660    0.43840    1.000
    H86      H        0.06890    0.44700    0.14870    1.000
    C519     C        0.03490    0.41610    0.08750    1.000
    C520     C        0.04020    0.33250    0.09160    1.000
    H87      H        0.22970    0.34820    0.35890    1.000
    C521     C        0.26860    0.28440    0.37070    1.000
    C522     C        0.21920    0.22340    0.31550    1.000
    H88      H        0.15030    0.24810    0.26760    1.000
    C523     C        0.86330    0.37520    0.77515    1.000
    C524     C        0.51030    0.23250    0.41780    1.000
    H89      H        0.03350    0.44490    0.07080    1.000
    C525     C        0.01460    0.37190    0.06470    1.000
    H90      H        0.29890    0.29430    0.39690    1.000
    C526     C        0.26390    0.23690    0.35460    1.000
    H91      H        0.21570    0.19110    0.30440    1.000
    C527     C        0.99040    0.37060    0.01470    1.000
    C528     C        0.30700    0.19950    0.37840    1.000
    C529     C        0.00970    0.33160    0.08900    1.000
    C530     C        0.03260    0.33480    0.13600    1.000
    C531     C        0.75300    0.42180    0.50940    1.000
    C532     C        0.77720    0.42140    0.55950    1.000
    C533     C        0.74970    0.39640    0.58050    1.000
    C534     C        0.70170    0.37170    0.55780    1.000
    C535     C        0.67960    0.37230    0.50950    1.000
    C536     C        0.70550    0.39910    0.48810    1.000
    C537     C        0.64100    0.33260    0.48850    1.000
    C538     C        0.59900    0.32790    0.50180    1.000
    C539     C        0.55400    0.29840    0.47950    1.000
    C540     C        0.55210    0.27270    0.44230    1.000
    C541     C        0.59430    0.27370    0.42800    1.000
    C542     C        0.63860    0.30720    0.45200    1.000
    C543     C        0.83240    0.38620    0.65690    1.000
    C544     C        0.85420    0.38680    0.70190    1.000
    C545     C        0.82070    0.38950    0.72880    1.000
    C546     C        0.76090    0.38990    0.70540    1.000
    C547     C        0.74200    0.39270    0.65600    1.000
    C548     C        0.77660    0.39300    0.63270    1.000
    C549     C        0.84030    0.44870    0.50340    1.000
    C550     C        0.86920    0.47840    0.48510    1.000
    C551     C        0.75250    0.47650    0.44510    1.000
    C552     C        0.78830    0.49180    0.42540    1.000
    C553     C        0.78330    0.45080    0.48400    1.000
    Zn29     Zn       0.35096    0.11012    0.36047    1.000
    O92      O        0.42400    0.13270    0.39426    1.000
    O93      O        0.33300    0.05040    0.38310    1.000
    O94      O        0.33330    0.89200    0.79384    1.000
    O95      O        0.79880    0.65700    0.36350    1.000
    Zn30     Zn       0.46696    0.08008    0.43106    1.000
    Zn31     Zn       0.45798    0.15557    0.35312    1.000
    Zn32     Zn       0.42168    0.18441    0.43468    1.000
    C554     C        0.36730    0.02420    0.41490    1.000
    O96      O        0.41800    0.02650    0.42820    1.000
    O97      O        0.51850    0.05030    0.40920    1.000
    O98      O        0.50020    0.90630    0.99480    1.000
    O99      O        0.51300    0.10400    0.35610    1.000
    O100     O        0.40100    0.84450    0.79010    1.000
    O101     O        0.00920    0.70790    0.38640    1.000
    O102     O        0.97170    0.73580    0.43330    1.000
    O103     O        0.84930    0.71370    0.40980    1.000
    O104     O        0.45700    0.83670    0.99914    1.000
    C555     C        0.34480    0.98650    0.43880    1.000
    C556     C        0.52350    0.06210    0.37440    1.000
    C557     C        0.38240    0.96280    0.47620    1.000
    C558     C        0.28930    0.97500    0.42360    1.000
    C559     C        0.54730    0.02600    0.35160    1.000
    C560     C        0.36440    0.92760    0.49850    1.000
    C561     C        0.27140    0.93990    0.44590    1.000
    C562     C        0.54970    0.03650    0.31040    1.000
    C563     C        0.55980    0.98090    0.36920    1.000
    C564     C        0.30900    0.91620    0.48340    1.000
    H92      H        0.53950    0.06780    0.29750    1.000
    C565     C        0.56730    0.00110    0.28730    1.000
    C566     C        0.57510    0.94540    0.34640    1.000
    H93      H        0.55800    0.97370    0.39760    1.000
    C567     C        0.28630    0.88520    0.51090    1.000
    H94      H        0.57090    0.00890    0.25960    1.000
    C568     C        0.57960    0.95430    0.30520    1.000
    H95      H        0.58290    0.91380    0.35920    1.000
    C569     C        0.30900    0.88600    0.55790    1.000
    C570     C        0.24020    0.85700    0.48830    1.000
    C571     C        0.59450    0.91560    0.28110    1.000
    C572     C        0.28560    0.85870    0.58240    1.000
    C573     C        0.21690    0.82960    0.51280    1.000
    C574     C        0.57190    0.91450    0.23330    1.000
    C575     C        0.63120    0.87920    0.30360    1.000
    C576     C        0.23960    0.83040    0.55980    1.000
    C577     C        0.30960    0.85690    0.63190    1.000
    C578     C        0.15930    0.80800    0.48490    1.000
    H96      H        0.54730    0.93940    0.21700    1.000
    C579     C        0.58560    0.87620    0.20900    1.000
    C580     C        0.64630    0.84270    0.28220    1.000
    H97      H        0.64670    0.87980    0.33570    1.000
    C581     C        0.36530    0.85200    0.65770    1.000
    C582     C        0.27310    0.86550    0.65300    1.000
    C583     C        0.11420    0.81310    0.49680    1.000
    C584     C        0.15650    0.77720    0.44970    1.000
    C585     C        0.62160    0.84070    0.23370    1.000
    C586     C        0.56050    0.87590    0.15840    1.000
    C587     C        0.68530    0.80520    0.30840    1.000
    C588     C        0.38470    0.85590    0.70460    1.000
    C589     C        0.29240    0.86930    0.69990    1.000
    C590     C        0.06630    0.78740    0.47360    1.000
    C591     C        0.10860    0.75150    0.42640    1.000
    H98      H        0.63010    0.81450    0.21830    1.000
    C592     C        0.55640    0.91710    0.13350    1.000
    C593     C        0.55360    0.83050    0.13800    1.000
    C594     C        0.72790    0.81630    0.34720    1.000
    C595     C        0.68100    0.75730    0.29380    1.000
    C596     C        0.34820    0.86450    0.72560    1.000
    C597     C        0.06350    0.75660    0.43840    1.000
    H99      H        0.56890    0.94700    0.14870    1.000
    C598     C        0.53490    0.91610    0.08750    1.000
    C599     C        0.54020    0.83250    0.09160    1.000
    H100     H        0.72970    0.84820    0.35890    1.000
    C600     C        0.76860    0.78440    0.37070    1.000
    C601     C        0.71920    0.72340    0.31550    1.000
    H101     H        0.65030    0.74810    0.26760    1.000
    C602     C        0.36330    0.87520    0.77515    1.000
    C603     C        0.01030    0.73250    0.41780    1.000
    H102     H        0.53350    0.94490    0.07080    1.000
    C604     C        0.51460    0.87190    0.06470    1.000
    H103     H        0.79890    0.79430    0.39690    1.000
    C605     C        0.76390    0.73690    0.35460    1.000
    H104     H        0.71570    0.69110    0.30440    1.000
    C606     C        0.49040    0.87060    0.01470    1.000
    C607     C        0.80700    0.69950    0.37840    1.000
    C608     C        0.50970    0.83160    0.08900    1.000
    C609     C        0.53260    0.83480    0.13600    1.000
    C610     C        0.25300    0.92180    0.50940    1.000
    C611     C        0.27720    0.92140    0.55950    1.000
    C612     C        0.24970    0.89640    0.58050    1.000
    C613     C        0.20170    0.87170    0.55780    1.000
    C614     C        0.17960    0.87230    0.50950    1.000
    C615     C        0.20550    0.89910    0.48810    1.000
    C616     C        0.14100    0.83260    0.48850    1.000
    C617     C        0.09900    0.82790    0.50180    1.000
    C618     C        0.05400    0.79840    0.47950    1.000
    C619     C        0.05210    0.77270    0.44230    1.000
    C620     C        0.09430    0.77370    0.42800    1.000
    C621     C        0.13860    0.80720    0.45200    1.000
    C622     C        0.33240    0.88620    0.65690    1.000
    C623     C        0.35420    0.88680    0.70190    1.000
    C624     C        0.32070    0.88950    0.72880    1.000
    C625     C        0.26090    0.88990    0.70540    1.000
    C626     C        0.24200    0.89270    0.65600    1.000
    C627     C        0.27660    0.89300    0.63270    1.000
    C628     C        0.34030    0.94870    0.50340    1.000
    C629     C        0.36920    0.97840    0.48510    1.000
    C630     C        0.25250    0.97650    0.44510    1.000
    C631     C        0.28830    0.99180    0.42540    1.000
    C632     C        0.28330    0.95080    0.48400    1.000
