# CIF file generated by openbabel 3.1.0, see https://openbabel.org
data_I
_chemical_name_common 'image0'
_cell_length_a 36.635
_cell_length_b 36.635
_cell_length_c 12.1278
_cell_angle_alpha 90
_cell_angle_beta 90
_cell_angle_gamma 120
_space_group_name_H-M_alt 'P 1'
_space_group_name_Hall 'P 1'
loop_
    _symmetry_equiv_pos_as_xyz
    x,y,z
loop_
    _atom_site_label
    _atom_site_type_symbol
    _atom_site_fract_x
    _atom_site_fract_y
    _atom_site_fract_z
    _atom_site_occupancy
    Zn1      Zn       0.13530    0.64883    0.44334    1.000
    O1       O        0.02813    0.78912    0.88858    1.000
    O2       O        0.96874    0.75506    0.98846    1.000
    O3       O        0.45711    0.85566    0.44246    1.000
    O4       O        0.44375    0.85205    0.26110    1.000
    N1       N        0.11048    0.65662    0.30567    1.000
    N2       N        0.11055    0.63838    0.20819    1.000
    H1       H        0.12110    0.62170    0.19890    1.000
    N3       N        0.19361    0.73058    0.54656    1.000
    H2       H        0.17280    0.72820    0.58790    1.000
    N4       N        0.19031    0.70045    0.47568    1.000
    C1       C        0.05985    0.69701    0.12000    1.000
    C2       C        0.00453    0.76274    0.96230    1.000
    C3       C        0.02390    0.73993    0.01850    1.000
    C4       C        0.06258    0.74588    0.98250    1.000
    H3       H        0.07700    0.76480    0.92370    1.000
    C5       C        0.08004    0.72418    0.03220    1.000
    H4       H        0.10610    0.72790    0.00620    1.000
    C6       C        0.02137    0.69162    0.15690    1.000
    H5       H        0.00740    0.67340    0.21730    1.000
    C7       C        0.00332    0.71267    0.10560    1.000
    H6       H        0.97690    0.70840    0.13020    1.000
    C8       C        0.07982    0.67546    0.17510    1.000
    C9       C        0.09161    0.67915    0.28630    1.000
    C10      C        0.09242    0.64910    0.12760    1.000
    C11      C        0.08589    0.70450    0.37440    1.000
    H7       H        0.07140    0.71860    0.34350    1.000
    H8       H        0.06900    0.68580    0.43450    1.000
    H9       H        0.11350    0.72570    0.40290    1.000
    C12      C        0.08819    0.63318    0.01230    1.000
    H10      H        0.07420    0.64470    0.96690    1.000
    H11      H        0.11620    0.64210    0.98210    1.000
    H12      H        0.07140    0.60230    0.01230    1.000
    C13      C        0.43265    0.84710    0.35920    1.000
    C14      C        0.38667    0.82756    0.38710    1.000
    C15      C        0.37363    0.82370    0.49630    1.000
    H13      H        0.39390    0.83600    0.55340    1.000
    C16      C        0.33130    0.80205    0.52210    1.000
    H14      H        0.32290    0.80010    0.59700    1.000
    C17      C        0.30065    0.78301    0.44080    1.000
    C18      C        0.31400    0.78876    0.33120    1.000
    H15      H        0.29370    0.77730    0.27370    1.000
    C19      C        0.35661    0.81099    0.30520    1.000
    H16      H        0.36510    0.81480    0.23010    1.000
    C20      C        0.25574    0.75639    0.46960    1.000
    C21      C        0.23253    0.76456    0.54600    1.000
    C22      C        0.22817    0.71597    0.42810    1.000
    C23      C        0.24384    0.80185    0.61670    1.000
    H17      H        0.27340    0.82310    0.60440    1.000
    H18      H        0.22590    0.81370    0.59780    1.000
    H19      H        0.23970    0.79330    0.69430    1.000
    C24      C        0.23599    0.68923    0.34770    1.000
    H20      H        0.23570    0.66580    0.38710    1.000
    H21      H        0.26350    0.70640    0.31230    1.000
    H22      H        0.21380    0.67810    0.29140    1.000
    Zn2      Zn       0.80197    0.98216    0.77667    1.000
    O5       O        0.69480    0.12245    0.22191    1.000
    O6       O        0.63541    0.08839    0.32179    1.000
    O7       O        0.12378    0.18899    0.77579    1.000
    O8       O        0.11042    0.18538    0.59443    1.000
    N5       N        0.77715    0.98995    0.63900    1.000
    N6       N        0.77722    0.97171    0.54152    1.000
    H23      H        0.78777    0.95503    0.53223    1.000
    N7       N        0.86028    0.06391    0.87989    1.000
    H24      H        0.83947    0.06153    0.92123    1.000
    N8       N        0.85698    0.03378    0.80901    1.000
    C25      C        0.72652    0.03034    0.45333    1.000
    C26      C        0.67120    0.09607    0.29563    1.000
    C27      C        0.69057    0.07326    0.35183    1.000
    C28      C        0.72925    0.07921    0.31583    1.000
    H25      H        0.74367    0.09813    0.25703    1.000
    C29      C        0.74671    0.05751    0.36553    1.000
    H26      H        0.77277    0.06123    0.33953    1.000
    C30      C        0.68804    0.02495    0.49023    1.000
    H27      H        0.67407    0.00673    0.55063    1.000
    C31      C        0.66999    0.04600    0.43893    1.000
    H28      H        0.64357    0.04173    0.46353    1.000
    C32      C        0.74649    0.00879    0.50843    1.000
    C33      C        0.75828    0.01248    0.61963    1.000
    C34      C        0.75909    0.98243    0.46093    1.000
    C35      C        0.75256    0.03783    0.70773    1.000
    H29      H        0.73807    0.05193    0.67683    1.000
    H30      H        0.73567    0.01913    0.76783    1.000
    H31      H        0.78017    0.05903    0.73623    1.000
    C36      C        0.75486    0.96651    0.34563    1.000
    H32      H        0.74087    0.97803    0.30023    1.000
    H33      H        0.78287    0.97543    0.31543    1.000
    H34      H        0.73807    0.93563    0.34563    1.000
    C37      C        0.09932    0.18043    0.69253    1.000
    C38      C        0.05334    0.16089    0.72043    1.000
    C39      C        0.04030    0.15703    0.82963    1.000
    H35      H        0.06057    0.16933    0.88673    1.000
    C40      C        0.99797    0.13538    0.85543    1.000
    H36      H        0.98957    0.13343    0.93033    1.000
    C41      C        0.96732    0.11634    0.77413    1.000
    C42      C        0.98067    0.12209    0.66453    1.000
    H37      H        0.96037    0.11063    0.60703    1.000
    C43      C        0.02328    0.14432    0.63853    1.000
    H38      H        0.03177    0.14813    0.56343    1.000
    C44      C        0.92241    0.08972    0.80293    1.000
    C45      C        0.89920    0.09789    0.87933    1.000
    C46      C        0.89484    0.04930    0.76143    1.000
    C47      C        0.91051    0.13518    0.95003    1.000
    H39      H        0.94007    0.15643    0.93773    1.000
    H40      H        0.89257    0.14703    0.93113    1.000
    H41      H        0.90637    0.12663    0.02763    1.000
    C48      C        0.90266    0.02256    0.68103    1.000
    H42      H        0.90237    0.99913    0.72043    1.000
    H43      H        0.93017    0.03973    0.64563    1.000
    H44      H        0.88047    0.01143    0.62473    1.000
    Zn3      Zn       0.46863    0.31550    0.11001    1.000
    O9       O        0.36146    0.45579    0.55525    1.000
    O10      O        0.30207    0.42173    0.65513    1.000
    O11      O        0.79044    0.52233    0.10913    1.000
    O12      O        0.77708    0.51872    0.92777    1.000
    N9       N        0.44381    0.32329    0.97234    1.000
    N10      N        0.44388    0.30505    0.87486    1.000
    H45      H        0.45443    0.28837    0.86557    1.000
    N11      N        0.52694    0.39725    0.21323    1.000
    H46      H        0.50613    0.39487    0.25457    1.000
    N12      N        0.52364    0.36712    0.14235    1.000
    C49      C        0.39318    0.36368    0.78667    1.000
    C50      C        0.33786    0.42941    0.62897    1.000
    C51      C        0.35723    0.40660    0.68517    1.000
    C52      C        0.39591    0.41255    0.64917    1.000
    H47      H        0.41033    0.43147    0.59037    1.000
    C53      C        0.41337    0.39085    0.69887    1.000
    H48      H        0.43943    0.39457    0.67287    1.000
    C54      C        0.35470    0.35829    0.82357    1.000
    H49      H        0.34073    0.34007    0.88397    1.000
    C55      C        0.33665    0.37934    0.77227    1.000
    H50      H        0.31023    0.37507    0.79687    1.000
    C56      C        0.41315    0.34213    0.84177    1.000
    C57      C        0.42494    0.34582    0.95297    1.000
    C58      C        0.42575    0.31577    0.79427    1.000
    C59      C        0.41922    0.37117    0.04107    1.000
    H51      H        0.40473    0.38527    0.01017    1.000
    H52      H        0.40233    0.35247    0.10117    1.000
    H53      H        0.44683    0.39237    0.06957    1.000
    C60      C        0.42152    0.29985    0.67897    1.000
    H54      H        0.40753    0.31137    0.63357    1.000
    H55      H        0.44953    0.30877    0.64877    1.000
    H56      H        0.40473    0.26897    0.67897    1.000
    C61      C        0.76598    0.51377    0.02587    1.000
    C62      C        0.72000    0.49423    0.05377    1.000
    C63      C        0.70696    0.49037    0.16297    1.000
    H57      H        0.72723    0.50267    0.22007    1.000
    C64      C        0.66463    0.46872    0.18877    1.000
    H58      H        0.65623    0.46677    0.26367    1.000
    C65      C        0.63398    0.44968    0.10747    1.000
    C66      C        0.64733    0.45543    0.99787    1.000
    H59      H        0.62703    0.44397    0.94037    1.000
    C67      C        0.68994    0.47766    0.97187    1.000
    H60      H        0.69843    0.48147    0.89677    1.000
    C68      C        0.58907    0.42306    0.13627    1.000
    C69      C        0.56586    0.43123    0.21267    1.000
    C70      C        0.56150    0.38264    0.09477    1.000
    C71      C        0.57717    0.46852    0.28337    1.000
    H61      H        0.60673    0.48977    0.27107    1.000
    H62      H        0.55923    0.48037    0.26447    1.000
    H63      H        0.57303    0.45997    0.36097    1.000
    C72      C        0.56932    0.35590    0.01437    1.000
    H64      H        0.56903    0.33247    0.05377    1.000
    H65      H        0.59683    0.37307    0.97897    1.000
    H66      H        0.54713    0.34477    0.95807    1.000
    Zn4      Zn       0.35117    0.48647    0.44334    1.000
    O13      O        0.21088    0.23901    0.88858    1.000
    O14      O        0.24494    0.21368    0.98846    1.000
    O15      O        0.14434    0.60145    0.44246    1.000
    O16      O        0.14795    0.59170    0.26110    1.000
    N13      N        0.34338    0.45386    0.30567    1.000
    N14      N        0.36162    0.47217    0.20819    1.000
    H67      H        0.37830    0.49940    0.19890    1.000
    N15      N        0.26942    0.46303    0.54656    1.000
    H68      H        0.27180    0.44460    0.58790    1.000
    N16      N        0.29955    0.48986    0.47568    1.000
    C73      C        0.30299    0.36284    0.12000    1.000
    C74      C        0.23726    0.24179    0.96230    1.000
    C75      C        0.26007    0.28397    0.01850    1.000
    C76      C        0.25412    0.31670    0.98250    1.000
    H69      H        0.23520    0.31220    0.92370    1.000
    C77      C        0.27582    0.35586    0.03220    1.000
    H70      H        0.27210    0.37820    0.00620    1.000
    C78      C        0.30838    0.32975    0.15690    1.000
    H71      H        0.32660    0.33400    0.21730    1.000
    C79      C        0.28733    0.29065    0.10560    1.000
    H72      H        0.29160    0.26850    0.13020    1.000
    C80      C        0.32454    0.40436    0.17510    1.000
    C81      C        0.32085    0.41246    0.28630    1.000
    C82      C        0.35090    0.44332    0.12760    1.000
    C83      C        0.29550    0.38139    0.37440    1.000
    H73      H        0.28140    0.35280    0.34350    1.000
    H74      H        0.31420    0.38320    0.43450    1.000
    H75      H        0.27430    0.38780    0.40290    1.000
    C84      C        0.36682    0.45501    0.01230    1.000
    H76      H        0.35530    0.42950    0.96690    1.000
    H77      H        0.35790    0.47410    0.98210    1.000
    H78      H        0.39770    0.46910    0.01230    1.000
    C85      C        0.15290    0.58555    0.35920    1.000
    C86      C        0.17244    0.55911    0.38710    1.000
    C87      C        0.17630    0.54993    0.49630    1.000
    H79      H        0.16400    0.55790    0.55340    1.000
    C88      C        0.19795    0.52925    0.52210    1.000
    H80      H        0.19990    0.52280    0.59700    1.000
    C89      C        0.21699    0.51764    0.44080    1.000
    C90      C        0.21124    0.52524    0.33120    1.000
    H81      H        0.22270    0.51640    0.27370    1.000
    C91      C        0.18901    0.54562    0.30520    1.000
    H82      H        0.18520    0.55030    0.23010    1.000
    C92      C        0.24361    0.49935    0.46960    1.000
    C93      C        0.23544    0.46797    0.54600    1.000
    C94      C        0.28403    0.51220    0.42810    1.000
    C95      C        0.19815    0.44199    0.61670    1.000
    H83      H        0.17690    0.45030    0.60440    1.000
    H84      H        0.18630    0.41220    0.59780    1.000
    H85      H        0.20670    0.44640    0.69430    1.000
    C96      C        0.31077    0.54676    0.34770    1.000
    H86      H        0.33420    0.56990    0.38710    1.000
    H87      H        0.29360    0.55710    0.31230    1.000
    H88      H        0.32190    0.53570    0.29140    1.000
    Zn5      Zn       0.01784    0.81980    0.77667    1.000
    O17      O        0.87755    0.57234    0.22191    1.000
    O18      O        0.91161    0.54701    0.32179    1.000
    O19      O        0.81101    0.93478    0.77579    1.000
    O20      O        0.81462    0.92503    0.59443    1.000
    N17      N        0.01005    0.78719    0.63900    1.000
    N18      N        0.02829    0.80550    0.54152    1.000
    H89      H        0.04497    0.83273    0.53223    1.000
    N19      N        0.93609    0.79636    0.87989    1.000
    H90      H        0.93847    0.77793    0.92123    1.000
    N20      N        0.96622    0.82319    0.80901    1.000
    C97      C        0.96966    0.69617    0.45333    1.000
    C98      C        0.90393    0.57512    0.29563    1.000
    C99      C        0.92674    0.61730    0.35183    1.000
    C100     C        0.92079    0.65003    0.31583    1.000
    H91      H        0.90187    0.64553    0.25703    1.000
    C101     C        0.94249    0.68919    0.36553    1.000
    H92      H        0.93877    0.71153    0.33953    1.000
    C102     C        0.97505    0.66308    0.49023    1.000
    H93      H        0.99327    0.66733    0.55063    1.000
    C103     C        0.95400    0.62398    0.43893    1.000
    H94      H        0.95827    0.60183    0.46353    1.000
    C104     C        0.99121    0.73769    0.50843    1.000
    C105     C        0.98752    0.74579    0.61963    1.000
    C106     C        0.01757    0.77665    0.46093    1.000
    C107     C        0.96217    0.71472    0.70773    1.000
    H95      H        0.94807    0.68613    0.67683    1.000
    H96      H        0.98087    0.71653    0.76783    1.000
    H97      H        0.94097    0.72113    0.73623    1.000
    C108     C        0.03349    0.78834    0.34563    1.000
    H98      H        0.02197    0.76283    0.30023    1.000
    H99      H        0.02457    0.80743    0.31543    1.000
    H100     H        0.06437    0.80243    0.34563    1.000
    C109     C        0.81957    0.91888    0.69253    1.000
    C110     C        0.83911    0.89244    0.72043    1.000
    C111     C        0.84297    0.88326    0.82963    1.000
    H101     H        0.83067    0.89123    0.88673    1.000
    C112     C        0.86462    0.86258    0.85543    1.000
    H102     H        0.86657    0.85613    0.93033    1.000
    C113     C        0.88366    0.85097    0.77413    1.000
    C114     C        0.87791    0.85857    0.66453    1.000
    H103     H        0.88937    0.84973    0.60703    1.000
    C115     C        0.85568    0.87895    0.63853    1.000
    H104     H        0.85187    0.88363    0.56343    1.000
    C116     C        0.91028    0.83268    0.80293    1.000
    C117     C        0.90211    0.80130    0.87933    1.000
    C118     C        0.95070    0.84553    0.76143    1.000
    C119     C        0.86482    0.77532    0.95003    1.000
    H105     H        0.84357    0.78363    0.93773    1.000
    H106     H        0.85297    0.74553    0.93113    1.000
    H107     H        0.87337    0.77973    0.02763    1.000
    C120     C        0.97744    0.88009    0.68103    1.000
    H108     H        0.00087    0.90323    0.72043    1.000
    H109     H        0.96027    0.89043    0.64563    1.000
    H110     H        0.98857    0.86903    0.62473    1.000
    Zn6      Zn       0.68450    0.15314    0.11001    1.000
    O21      O        0.54421    0.90568    0.55525    1.000
    O22      O        0.57827    0.88035    0.65513    1.000
    O23      O        0.47767    0.26812    0.10913    1.000
    O24      O        0.48128    0.25837    0.92777    1.000
    N21      N        0.67671    0.12053    0.97234    1.000
    N22      N        0.69495    0.13884    0.87486    1.000
    H111     H        0.71163    0.16607    0.86557    1.000
    N23      N        0.60275    0.12970    0.21323    1.000
    H112     H        0.60513    0.11127    0.25457    1.000
    N24      N        0.63288    0.15653    0.14235    1.000
    C121     C        0.63632    0.02951    0.78667    1.000
    C122     C        0.57059    0.90846    0.62897    1.000
    C123     C        0.59340    0.95064    0.68517    1.000
    C124     C        0.58745    0.98337    0.64917    1.000
    H113     H        0.56853    0.97887    0.59037    1.000
    C125     C        0.60915    0.02253    0.69887    1.000
    H114     H        0.60543    0.04487    0.67287    1.000
    C126     C        0.64171    0.99642    0.82357    1.000
    H115     H        0.65993    0.00067    0.88397    1.000
    C127     C        0.62066    0.95732    0.77227    1.000
    H116     H        0.62493    0.93517    0.79687    1.000
    C128     C        0.65787    0.07103    0.84177    1.000
    C129     C        0.65418    0.07913    0.95297    1.000
    C130     C        0.68423    0.10999    0.79427    1.000
    C131     C        0.62883    0.04806    0.04107    1.000
    H117     H        0.61473    0.01947    0.01017    1.000
    H118     H        0.64753    0.04987    0.10117    1.000
    H119     H        0.60763    0.05447    0.06957    1.000
    C132     C        0.70015    0.12168    0.67897    1.000
    H120     H        0.68863    0.09617    0.63357    1.000
    H121     H        0.69123    0.14077    0.64877    1.000
    H122     H        0.73103    0.13577    0.67897    1.000
    C133     C        0.48623    0.25222    0.02587    1.000
    C134     C        0.50577    0.22578    0.05377    1.000
    C135     C        0.50963    0.21660    0.16297    1.000
    H123     H        0.49733    0.22457    0.22007    1.000
    C136     C        0.53128    0.19592    0.18877    1.000
    H124     H        0.53323    0.18947    0.26367    1.000
    C137     C        0.55032    0.18431    0.10747    1.000
    C138     C        0.54457    0.19191    0.99787    1.000
    H125     H        0.55603    0.18307    0.94037    1.000
    C139     C        0.52234    0.21229    0.97187    1.000
    H126     H        0.51853    0.21697    0.89677    1.000
    C140     C        0.57694    0.16602    0.13627    1.000
    C141     C        0.56877    0.13464    0.21267    1.000
    C142     C        0.61736    0.17887    0.09477    1.000
    C143     C        0.53148    0.10866    0.28337    1.000
    H127     H        0.51023    0.11697    0.27107    1.000
    H128     H        0.51963    0.07887    0.26447    1.000
    H129     H        0.54003    0.11307    0.36097    1.000
    C144     C        0.64410    0.21343    0.01437    1.000
    H130     H        0.66753    0.23657    0.05377    1.000
    H131     H        0.62693    0.22377    0.97897    1.000
    H132     H        0.65523    0.20237    0.95807    1.000
    Zn7      Zn       0.51353    0.86470    0.44334    1.000
    O25      O        0.76099    0.97187    0.88858    1.000
    O26      O        0.78632    0.03126    0.98846    1.000
    O27      O        0.39855    0.54289    0.44246    1.000
    O28      O        0.40830    0.55625    0.26110    1.000
    N25      N        0.54614    0.88952    0.30567    1.000
    N26      N        0.52783    0.88945    0.20819    1.000
    H133     H        0.50060    0.87890    0.19890    1.000
    N27      N        0.53697    0.80639    0.54656    1.000
    H134     H        0.55540    0.82720    0.58790    1.000
    N28      N        0.51014    0.80969    0.47568    1.000
    C145     C        0.63716    0.94015    0.12000    1.000
    C146     C        0.75821    0.99547    0.96230    1.000
    C147     C        0.71603    0.97610    0.01850    1.000
    C148     C        0.68330    0.93742    0.98250    1.000
    H135     H        0.68780    0.92300    0.92370    1.000
    C149     C        0.64414    0.91996    0.03220    1.000
    H136     H        0.62180    0.89390    0.00620    1.000
    C150     C        0.67025    0.97863    0.15690    1.000
    H137     H        0.66600    0.99260    0.21730    1.000
    C151     C        0.70935    0.99668    0.10560    1.000
    H138     H        0.73150    0.02310    0.13020    1.000
    C152     C        0.59564    0.92018    0.17510    1.000
    C153     C        0.58754    0.90839    0.28630    1.000
    C154     C        0.55668    0.90758    0.12760    1.000
    C155     C        0.61861    0.91411    0.37440    1.000
    H139     H        0.64720    0.92860    0.34350    1.000
    H140     H        0.61680    0.93100    0.43450    1.000
    H141     H        0.61220    0.88650    0.40290    1.000
    C156     C        0.54499    0.91181    0.01230    1.000
    H142     H        0.57050    0.92580    0.96690    1.000
    H143     H        0.52590    0.88380    0.98210    1.000
    H144     H        0.53090    0.92860    0.01230    1.000
    C157     C        0.41445    0.56735    0.35920    1.000
    C158     C        0.44089    0.61333    0.38710    1.000
    C159     C        0.45007    0.62637    0.49630    1.000
    H145     H        0.44210    0.60610    0.55340    1.000
    C160     C        0.47075    0.66870    0.52210    1.000
    H146     H        0.47720    0.67710    0.59700    1.000
    C161     C        0.48236    0.69935    0.44080    1.000
    C162     C        0.47476    0.68600    0.33120    1.000
    H147     H        0.48360    0.70630    0.27370    1.000
    C163     C        0.45438    0.64339    0.30520    1.000
    H148     H        0.44970    0.63490    0.23010    1.000
    C164     C        0.50065    0.74426    0.46960    1.000
    C165     C        0.53203    0.76747    0.54600    1.000
    C166     C        0.48780    0.77183    0.42810    1.000
    C167     C        0.55801    0.75616    0.61670    1.000
    H149     H        0.54970    0.72660    0.60440    1.000
    H150     H        0.58780    0.77410    0.59780    1.000
    H151     H        0.55360    0.76030    0.69430    1.000
    C168     C        0.45324    0.76401    0.34770    1.000
    H152     H        0.43010    0.76430    0.38710    1.000
    H153     H        0.44290    0.73650    0.31230    1.000
    H154     H        0.46430    0.78620    0.29140    1.000
    Zn8      Zn       0.18020    0.19803    0.77667    1.000
    O29      O        0.42766    0.30520    0.22191    1.000
    O30      O        0.45299    0.36459    0.32179    1.000
    O31      O        0.06522    0.87622    0.77579    1.000
    O32      O        0.07497    0.88958    0.59443    1.000
    N29      N        0.21281    0.22285    0.63900    1.000
    N30      N        0.19450    0.22278    0.54152    1.000
    H155     H        0.16727    0.21223    0.53223    1.000
    N31      N        0.20364    0.13972    0.87989    1.000
    H156     H        0.22207    0.16053    0.92123    1.000
    N32      N        0.17681    0.14302    0.80901    1.000
    C169     C        0.30383    0.27348    0.45333    1.000
    C170     C        0.42488    0.32880    0.29563    1.000
    C171     C        0.38270    0.30943    0.35183    1.000
    C172     C        0.34997    0.27075    0.31583    1.000
    H157     H        0.35447    0.25633    0.25703    1.000
    C173     C        0.31081    0.25329    0.36553    1.000
    H158     H        0.28847    0.22723    0.33953    1.000
    C174     C        0.33692    0.31196    0.49023    1.000
    H159     H        0.33267    0.32593    0.55063    1.000
    C175     C        0.37602    0.33001    0.43893    1.000
    H160     H        0.39817    0.35643    0.46353    1.000
    C176     C        0.26231    0.25351    0.50843    1.000
    C177     C        0.25421    0.24172    0.61963    1.000
    C178     C        0.22335    0.24091    0.46093    1.000
    C179     C        0.28528    0.24744    0.70773    1.000
    H161     H        0.31387    0.26193    0.67683    1.000
    H162     H        0.28347    0.26433    0.76783    1.000
    H163     H        0.27887    0.21983    0.73623    1.000
    C180     C        0.21166    0.24514    0.34563    1.000
    H164     H        0.23717    0.25913    0.30023    1.000
    H165     H        0.19257    0.21713    0.31543    1.000
    H166     H        0.19757    0.26193    0.34563    1.000
    C181     C        0.08112    0.90068    0.69253    1.000
    C182     C        0.10756    0.94666    0.72043    1.000
    C183     C        0.11674    0.95970    0.82963    1.000
    H167     H        0.10877    0.93943    0.88673    1.000
    C184     C        0.13742    0.00203    0.85543    1.000
    H168     H        0.14387    0.01043    0.93033    1.000
    C185     C        0.14903    0.03268    0.77413    1.000
    C186     C        0.14143    0.01933    0.66453    1.000
    H169     H        0.15027    0.03963    0.60703    1.000
    C187     C        0.12105    0.97672    0.63853    1.000
    H170     H        0.11637    0.96823    0.56343    1.000
    C188     C        0.16732    0.07759    0.80293    1.000
    C189     C        0.19870    0.10080    0.87933    1.000
    C190     C        0.15447    0.10516    0.76143    1.000
    C191     C        0.22468    0.08949    0.95003    1.000
    H171     H        0.21637    0.05993    0.93773    1.000
    H172     H        0.25447    0.10743    0.93113    1.000
    H173     H        0.22027    0.09363    0.02763    1.000
    C192     C        0.11991    0.09734    0.68103    1.000
    H174     H        0.09677    0.09763    0.72043    1.000
    H175     H        0.10957    0.06983    0.64563    1.000
    H176     H        0.13097    0.11953    0.62473    1.000
    Zn9      Zn       0.84686    0.53137    0.11001    1.000
    O33      O        0.09432    0.63854    0.55525    1.000
    O34      O        0.11965    0.69793    0.65513    1.000
    O35      O        0.73188    0.20956    0.10913    1.000
    O36      O        0.74163    0.22292    0.92777    1.000
    N33      N        0.87947    0.55619    0.97234    1.000
    N34      N        0.86116    0.55612    0.87486    1.000
    H177     H        0.83393    0.54557    0.86557    1.000
    N35      N        0.87030    0.47306    0.21323    1.000
    H178     H        0.88873    0.49387    0.25457    1.000
    N36      N        0.84347    0.47636    0.14235    1.000
    C193     C        0.97049    0.60682    0.78667    1.000
    C194     C        0.09154    0.66214    0.62897    1.000
    C195     C        0.04936    0.64277    0.68517    1.000
    C196     C        0.01663    0.60409    0.64917    1.000
    H179     H        0.02113    0.58967    0.59037    1.000
    C197     C        0.97747    0.58663    0.69887    1.000
    H180     H        0.95513    0.56057    0.67287    1.000
    C198     C        0.00358    0.64530    0.82357    1.000
    H181     H        0.99933    0.65927    0.88397    1.000
    C199     C        0.04268    0.66335    0.77227    1.000
    H182     H        0.06483    0.68977    0.79687    1.000
    C200     C        0.92897    0.58685    0.84177    1.000
    C201     C        0.92087    0.57506    0.95297    1.000
    C202     C        0.89001    0.57425    0.79427    1.000
    C203     C        0.95194    0.58078    0.04107    1.000
    H183     H        0.98053    0.59527    0.01017    1.000
    H184     H        0.95013    0.59767    0.10117    1.000
    H185     H        0.94553    0.55317    0.06957    1.000
    C204     C        0.87832    0.57848    0.67897    1.000
    H186     H        0.90383    0.59247    0.63357    1.000
    H187     H        0.85923    0.55047    0.64877    1.000
    H188     H        0.86423    0.59527    0.67897    1.000
    C205     C        0.74778    0.23402    0.02587    1.000
    C206     C        0.77422    0.28000    0.05377    1.000
    C207     C        0.78340    0.29304    0.16297    1.000
    H189     H        0.77543    0.27277    0.22007    1.000
    C208     C        0.80408    0.33537    0.18877    1.000
    H190     H        0.81053    0.34377    0.26367    1.000
    C209     C        0.81569    0.36602    0.10747    1.000
    C210     C        0.80809    0.35267    0.99787    1.000
    H191     H        0.81693    0.37297    0.94037    1.000
    C211     C        0.78771    0.31006    0.97187    1.000
    H192     H        0.78303    0.30157    0.89677    1.000
    C212     C        0.83398    0.41093    0.13627    1.000
    C213     C        0.86536    0.43414    0.21267    1.000
    C214     C        0.82113    0.43850    0.09477    1.000
    C215     C        0.89134    0.42283    0.28337    1.000
    H193     H        0.88303    0.39327    0.27107    1.000
    H194     H        0.92113    0.44077    0.26447    1.000
    H195     H        0.88693    0.42697    0.36097    1.000
    C216     C        0.78657    0.43068    0.01437    1.000
    H196     H        0.76343    0.43097    0.05377    1.000
    H197     H        0.77623    0.40317    0.97897    1.000
    H198     H        0.79763    0.45287    0.95807    1.000
    Zn10     Zn       0.86470    0.35117    0.55666    1.000
    O37      O        0.97187    0.21088    0.11142    1.000
    O38      O        0.03126    0.24494    0.01154    1.000
    O39      O        0.54289    0.14434    0.55754    1.000
    O40      O        0.55625    0.14795    0.73890    1.000
    N37      N        0.88952    0.34338    0.69433    1.000
    N38      N        0.88945    0.36162    0.79181    1.000
    H199     H        0.87890    0.37830    0.80110    1.000
    N39      N        0.80639    0.26942    0.45344    1.000
    H200     H        0.82720    0.27180    0.41210    1.000
    N40      N        0.80969    0.29955    0.52432    1.000
    C217     C        0.94015    0.30299    0.88000    1.000
    C218     C        0.99547    0.23726    0.03770    1.000
    C219     C        0.97610    0.26007    0.98150    1.000
    C220     C        0.93742    0.25412    0.01750    1.000
    H201     H        0.92300    0.23520    0.07630    1.000
    C221     C        0.91996    0.27582    0.96780    1.000
    H202     H        0.89390    0.27210    0.99380    1.000
    C222     C        0.97863    0.30838    0.84310    1.000
    H203     H        0.99260    0.32660    0.78270    1.000
    C223     C        0.99668    0.28733    0.89440    1.000
    H204     H        0.02310    0.29160    0.86980    1.000
    C224     C        0.92018    0.32454    0.82490    1.000
    C225     C        0.90839    0.32085    0.71370    1.000
    C226     C        0.90758    0.35090    0.87240    1.000
    C227     C        0.91411    0.29550    0.62560    1.000
    H205     H        0.92860    0.28140    0.65650    1.000
    H206     H        0.93100    0.31420    0.56550    1.000
    H207     H        0.88650    0.27430    0.59710    1.000
    C228     C        0.91181    0.36682    0.98770    1.000
    H208     H        0.92580    0.35530    0.03310    1.000
    H209     H        0.88380    0.35790    0.01790    1.000
    H210     H        0.92860    0.39770    0.98770    1.000
    C229     C        0.56735    0.15290    0.64080    1.000
    C230     C        0.61333    0.17244    0.61290    1.000
    C231     C        0.62637    0.17630    0.50370    1.000
    H211     H        0.60610    0.16400    0.44660    1.000
    C232     C        0.66870    0.19795    0.47790    1.000
    H212     H        0.67710    0.19990    0.40300    1.000
    C233     C        0.69935    0.21699    0.55920    1.000
    C234     C        0.68600    0.21124    0.66880    1.000
    H213     H        0.70630    0.22270    0.72630    1.000
    C235     C        0.64339    0.18901    0.69480    1.000
    H214     H        0.63490    0.18520    0.76990    1.000
    C236     C        0.74426    0.24361    0.53040    1.000
    C237     C        0.76747    0.23544    0.45400    1.000
    C238     C        0.77183    0.28403    0.57190    1.000
    C239     C        0.75616    0.19815    0.38330    1.000
    H215     H        0.72660    0.17690    0.39560    1.000
    H216     H        0.77410    0.18630    0.40220    1.000
    H217     H        0.76030    0.20670    0.30570    1.000
    C240     C        0.76401    0.31077    0.65230    1.000
    H218     H        0.76430    0.33420    0.61290    1.000
    H219     H        0.73650    0.29360    0.68770    1.000
    H220     H        0.78620    0.32190    0.70860    1.000
    Zn11     Zn       0.53137    0.68450    0.88999    1.000
    O41      O        0.63854    0.54421    0.44475    1.000
    O42      O        0.69793    0.57827    0.34487    1.000
    O43      O        0.20956    0.47767    0.89087    1.000
    O44      O        0.22292    0.48128    0.07223    1.000
    N41      N        0.55619    0.67671    0.02766    1.000
    N42      N        0.55612    0.69495    0.12514    1.000
    H221     H        0.54557    0.71163    0.13443    1.000
    N43      N        0.47306    0.60275    0.78677    1.000
    H222     H        0.49387    0.60513    0.74543    1.000
    N44      N        0.47636    0.63288    0.85765    1.000
    C241     C        0.60682    0.63632    0.21333    1.000
    C242     C        0.66214    0.57059    0.37103    1.000
    C243     C        0.64277    0.59340    0.31483    1.000
    C244     C        0.60409    0.58745    0.35083    1.000
    H223     H        0.58967    0.56853    0.40963    1.000
    C245     C        0.58663    0.60915    0.30113    1.000
    H224     H        0.56057    0.60543    0.32713    1.000
    C246     C        0.64530    0.64171    0.17643    1.000
    H225     H        0.65927    0.65993    0.11603    1.000
    C247     C        0.66335    0.62066    0.22773    1.000
    H226     H        0.68977    0.62493    0.20313    1.000
    C248     C        0.58685    0.65787    0.15823    1.000
    C249     C        0.57506    0.65418    0.04703    1.000
    C250     C        0.57425    0.68423    0.20573    1.000
    C251     C        0.58078    0.62883    0.95893    1.000
    H227     H        0.59527    0.61473    0.98983    1.000
    H228     H        0.59767    0.64753    0.89883    1.000
    H229     H        0.55317    0.60763    0.93043    1.000
    C252     C        0.57848    0.70015    0.32103    1.000
    H230     H        0.59247    0.68863    0.36643    1.000
    H231     H        0.55047    0.69123    0.35123    1.000
    H232     H        0.59527    0.73103    0.32103    1.000
    C253     C        0.23402    0.48623    0.97413    1.000
    C254     C        0.28000    0.50577    0.94623    1.000
    C255     C        0.29304    0.50963    0.83703    1.000
    H233     H        0.27277    0.49733    0.77993    1.000
    C256     C        0.33537    0.53128    0.81123    1.000
    H234     H        0.34377    0.53323    0.73633    1.000
    C257     C        0.36602    0.55032    0.89253    1.000
    C258     C        0.35267    0.54457    0.00213    1.000
    H235     H        0.37297    0.55603    0.05963    1.000
    C259     C        0.31006    0.52234    0.02813    1.000
    H236     H        0.30157    0.51853    0.10323    1.000
    C260     C        0.41093    0.57694    0.86373    1.000
    C261     C        0.43414    0.56877    0.78733    1.000
    C262     C        0.43850    0.61736    0.90523    1.000
    C263     C        0.42283    0.53148    0.71663    1.000
    H237     H        0.39327    0.51023    0.72893    1.000
    H238     H        0.44077    0.51963    0.73553    1.000
    H239     H        0.42697    0.54003    0.63903    1.000
    C264     C        0.43068    0.64410    0.98563    1.000
    H240     H        0.43097    0.66753    0.94623    1.000
    H241     H        0.40317    0.62693    0.02103    1.000
    H242     H        0.45287    0.65523    0.04193    1.000
    Zn12     Zn       0.19803    0.01784    0.22333    1.000
    O45      O        0.30520    0.87755    0.77809    1.000
    O46      O        0.36459    0.91161    0.67821    1.000
    O47      O        0.87622    0.81101    0.22421    1.000
    O48      O        0.88958    0.81462    0.40557    1.000
    N45      N        0.22285    0.01005    0.36100    1.000
    N46      N        0.22278    0.02829    0.45848    1.000
    H243     H        0.21223    0.04497    0.46777    1.000
    N47      N        0.13972    0.93609    0.12011    1.000
    H244     H        0.16053    0.93847    0.07877    1.000
    N48      N        0.14302    0.96622    0.19099    1.000
    C265     C        0.27348    0.96966    0.54667    1.000
    C266     C        0.32880    0.90393    0.70437    1.000
    C267     C        0.30943    0.92674    0.64817    1.000
    C268     C        0.27075    0.92079    0.68417    1.000
    H245     H        0.25633    0.90187    0.74297    1.000
    C269     C        0.25329    0.94249    0.63447    1.000
    H246     H        0.22723    0.93877    0.66047    1.000
    C270     C        0.31196    0.97505    0.50977    1.000
    H247     H        0.32593    0.99327    0.44937    1.000
    C271     C        0.33001    0.95400    0.56107    1.000
    H248     H        0.35643    0.95827    0.53647    1.000
    C272     C        0.25351    0.99121    0.49157    1.000
    C273     C        0.24172    0.98752    0.38037    1.000
    C274     C        0.24091    0.01757    0.53907    1.000
    C275     C        0.24744    0.96217    0.29227    1.000
    H249     H        0.26193    0.94807    0.32317    1.000
    H250     H        0.26433    0.98087    0.23217    1.000
    H251     H        0.21983    0.94097    0.26377    1.000
    C276     C        0.24514    0.03349    0.65437    1.000
    H252     H        0.25913    0.02197    0.69977    1.000
    H253     H        0.21713    0.02457    0.68457    1.000
    H254     H        0.26193    0.06437    0.65437    1.000
    C277     C        0.90068    0.81957    0.30747    1.000
    C278     C        0.94666    0.83911    0.27957    1.000
    C279     C        0.95970    0.84297    0.17037    1.000
    H255     H        0.93943    0.83067    0.11327    1.000
    C280     C        0.00203    0.86462    0.14457    1.000
    H256     H        0.01043    0.86657    0.06967    1.000
    C281     C        0.03268    0.88366    0.22587    1.000
    C282     C        0.01933    0.87791    0.33547    1.000
    H257     H        0.03963    0.88937    0.39297    1.000
    C283     C        0.97672    0.85568    0.36147    1.000
    H258     H        0.96823    0.85187    0.43657    1.000
    C284     C        0.07759    0.91028    0.19707    1.000
    C285     C        0.10080    0.90211    0.12067    1.000
    C286     C        0.10516    0.95070    0.23857    1.000
    C287     C        0.08949    0.86482    0.04997    1.000
    H259     H        0.05993    0.84357    0.06227    1.000
    H260     H        0.10743    0.85297    0.06887    1.000
    H261     H        0.09363    0.87337    0.97237    1.000
    C288     C        0.09734    0.97744    0.31897    1.000
    H262     H        0.09763    0.00087    0.27957    1.000
    H263     H        0.06983    0.96027    0.35437    1.000
    H264     H        0.11953    0.98857    0.37527    1.000
    Zn13     Zn       0.64883    0.51353    0.55666    1.000
    O49      O        0.78912    0.76099    0.11142    1.000
    O50      O        0.75506    0.78632    0.01154    1.000
    O51      O        0.85566    0.39855    0.55754    1.000
    O52      O        0.85205    0.40830    0.73890    1.000
    N49      N        0.65662    0.54614    0.69433    1.000
    N50      N        0.63838    0.52783    0.79181    1.000
    H265     H        0.62170    0.50060    0.80110    1.000
    N51      N        0.73058    0.53697    0.45344    1.000
    H266     H        0.72820    0.55540    0.41210    1.000
    N52      N        0.70045    0.51014    0.52432    1.000
    C289     C        0.69701    0.63716    0.88000    1.000
    C290     C        0.76274    0.75821    0.03770    1.000
    C291     C        0.73993    0.71603    0.98150    1.000
    C292     C        0.74588    0.68330    0.01750    1.000
    H267     H        0.76480    0.68780    0.07630    1.000
    C293     C        0.72418    0.64414    0.96780    1.000
    H268     H        0.72790    0.62180    0.99380    1.000
    C294     C        0.69162    0.67025    0.84310    1.000
    H269     H        0.67340    0.66600    0.78270    1.000
    C295     C        0.71267    0.70935    0.89440    1.000
    H270     H        0.70840    0.73150    0.86980    1.000
    C296     C        0.67546    0.59564    0.82490    1.000
    C297     C        0.67915    0.58754    0.71370    1.000
    C298     C        0.64910    0.55668    0.87240    1.000
    C299     C        0.70450    0.61861    0.62560    1.000
    H271     H        0.71860    0.64720    0.65650    1.000
    H272     H        0.68580    0.61680    0.56550    1.000
    H273     H        0.72570    0.61220    0.59710    1.000
    C300     C        0.63318    0.54499    0.98770    1.000
    H274     H        0.64470    0.57050    0.03310    1.000
    H275     H        0.64210    0.52590    0.01790    1.000
    H276     H        0.60230    0.53090    0.98770    1.000
    C301     C        0.84710    0.41445    0.64080    1.000
    C302     C        0.82756    0.44089    0.61290    1.000
    C303     C        0.82370    0.45007    0.50370    1.000
    H277     H        0.83600    0.44210    0.44660    1.000
    C304     C        0.80205    0.47075    0.47790    1.000
    H278     H        0.80010    0.47720    0.40300    1.000
    C305     C        0.78301    0.48236    0.55920    1.000
    C306     C        0.78876    0.47476    0.66880    1.000
    H279     H        0.77730    0.48360    0.72630    1.000
    C307     C        0.81099    0.45438    0.69480    1.000
    H280     H        0.81480    0.44970    0.76990    1.000
    C308     C        0.75639    0.50065    0.53040    1.000
    C309     C        0.76456    0.53203    0.45400    1.000
    C310     C        0.71597    0.48780    0.57190    1.000
    C311     C        0.80185    0.55801    0.38330    1.000
    H281     H        0.82310    0.54970    0.39560    1.000
    H282     H        0.81370    0.58780    0.40220    1.000
    H283     H        0.79330    0.55360    0.30570    1.000
    C312     C        0.68923    0.45324    0.65230    1.000
    H284     H        0.66580    0.43010    0.61290    1.000
    H285     H        0.70640    0.44290    0.68770    1.000
    H286     H        0.67810    0.46430    0.70860    1.000
    Zn14     Zn       0.31550    0.84686    0.88999    1.000
    O53      O        0.45579    0.09432    0.44475    1.000
    O54      O        0.42173    0.11965    0.34487    1.000
    O55      O        0.52233    0.73188    0.89087    1.000
    O56      O        0.51872    0.74163    0.07223    1.000
    N53      N        0.32329    0.87947    0.02766    1.000
    N54      N        0.30505    0.86116    0.12514    1.000
    H287     H        0.28837    0.83393    0.13443    1.000
    N55      N        0.39725    0.87030    0.78677    1.000
    H288     H        0.39487    0.88873    0.74543    1.000
    N56      N        0.36712    0.84347    0.85765    1.000
    C313     C        0.36368    0.97049    0.21333    1.000
    C314     C        0.42941    0.09154    0.37103    1.000
    C315     C        0.40660    0.04936    0.31483    1.000
    C316     C        0.41255    0.01663    0.35083    1.000
    H289     H        0.43147    0.02113    0.40963    1.000
    C317     C        0.39085    0.97747    0.30113    1.000
    H290     H        0.39457    0.95513    0.32713    1.000
    C318     C        0.35829    0.00358    0.17643    1.000
    H291     H        0.34007    0.99933    0.11603    1.000
    C319     C        0.37934    0.04268    0.22773    1.000
    H292     H        0.37507    0.06483    0.20313    1.000
    C320     C        0.34213    0.92897    0.15823    1.000
    C321     C        0.34582    0.92087    0.04703    1.000
    C322     C        0.31577    0.89001    0.20573    1.000
    C323     C        0.37117    0.95194    0.95893    1.000
    H293     H        0.38527    0.98053    0.98983    1.000
    H294     H        0.35247    0.95013    0.89883    1.000
    H295     H        0.39237    0.94553    0.93043    1.000
    C324     C        0.29985    0.87832    0.32103    1.000
    H296     H        0.31137    0.90383    0.36643    1.000
    H297     H        0.30877    0.85923    0.35123    1.000
    H298     H        0.26897    0.86423    0.32103    1.000
    C325     C        0.51377    0.74778    0.97413    1.000
    C326     C        0.49423    0.77422    0.94623    1.000
    C327     C        0.49037    0.78340    0.83703    1.000
    H299     H        0.50267    0.77543    0.77993    1.000
    C328     C        0.46872    0.80408    0.81123    1.000
    H300     H        0.46677    0.81053    0.73633    1.000
    C329     C        0.44968    0.81569    0.89253    1.000
    C330     C        0.45543    0.80809    0.00213    1.000
    H301     H        0.44397    0.81693    0.05963    1.000
    C331     C        0.47766    0.78771    0.02813    1.000
    H302     H        0.48147    0.78303    0.10323    1.000
    C332     C        0.42306    0.83398    0.86373    1.000
    C333     C        0.43123    0.86536    0.78733    1.000
    C334     C        0.38264    0.82113    0.90523    1.000
    C335     C        0.46852    0.89134    0.71663    1.000
    H303     H        0.48977    0.88303    0.72893    1.000
    H304     H        0.48037    0.92113    0.73553    1.000
    H305     H        0.45997    0.88693    0.63903    1.000
    C336     C        0.35590    0.78657    0.98563    1.000
    H306     H        0.33247    0.76343    0.94623    1.000
    H307     H        0.37307    0.77623    0.02103    1.000
    H308     H        0.34477    0.79763    0.04193    1.000
    Zn15     Zn       0.98216    0.18020    0.22333    1.000
    O57      O        0.12245    0.42766    0.77809    1.000
    O58      O        0.08839    0.45299    0.67821    1.000
    O59      O        0.18899    0.06522    0.22421    1.000
    O60      O        0.18538    0.07497    0.40557    1.000
    N57      N        0.98995    0.21281    0.36100    1.000
    N58      N        0.97171    0.19450    0.45848    1.000
    H309     H        0.95503    0.16727    0.46777    1.000
    N59      N        0.06391    0.20364    0.12011    1.000
    H310     H        0.06153    0.22207    0.07877    1.000
    N60      N        0.03378    0.17681    0.19099    1.000
    C337     C        0.03034    0.30383    0.54667    1.000
    C338     C        0.09607    0.42488    0.70437    1.000
    C339     C        0.07326    0.38270    0.64817    1.000
    C340     C        0.07921    0.34997    0.68417    1.000
    H311     H        0.09813    0.35447    0.74297    1.000
    C341     C        0.05751    0.31081    0.63447    1.000
    H312     H        0.06123    0.28847    0.66047    1.000
    C342     C        0.02495    0.33692    0.50977    1.000
    H313     H        0.00673    0.33267    0.44937    1.000
    C343     C        0.04600    0.37602    0.56107    1.000
    H314     H        0.04173    0.39817    0.53647    1.000
    C344     C        0.00879    0.26231    0.49157    1.000
    C345     C        0.01248    0.25421    0.38037    1.000
    C346     C        0.98243    0.22335    0.53907    1.000
    C347     C        0.03783    0.28528    0.29227    1.000
    H315     H        0.05193    0.31387    0.32317    1.000
    H316     H        0.01913    0.28347    0.23217    1.000
    H317     H        0.05903    0.27887    0.26377    1.000
    C348     C        0.96651    0.21166    0.65437    1.000
    H318     H        0.97803    0.23717    0.69977    1.000
    H319     H        0.97543    0.19257    0.68457    1.000
    H320     H        0.93563    0.19757    0.65437    1.000
    C349     C        0.18043    0.08112    0.30747    1.000
    C350     C        0.16089    0.10756    0.27957    1.000
    C351     C        0.15703    0.11674    0.17037    1.000
    H321     H        0.16933    0.10877    0.11327    1.000
    C352     C        0.13538    0.13742    0.14457    1.000
    H322     H        0.13343    0.14387    0.06967    1.000
    C353     C        0.11634    0.14903    0.22587    1.000
    C354     C        0.12209    0.14143    0.33547    1.000
    H323     H        0.11063    0.15027    0.39297    1.000
    C355     C        0.14432    0.12105    0.36147    1.000
    H324     H        0.14813    0.11637    0.43657    1.000
    C356     C        0.08972    0.16732    0.19707    1.000
    C357     C        0.09789    0.19870    0.12067    1.000
    C358     C        0.04930    0.15447    0.23857    1.000
    C359     C        0.13518    0.22468    0.04997    1.000
    H325     H        0.15643    0.21637    0.06227    1.000
    H326     H        0.14703    0.25447    0.06887    1.000
    H327     H        0.12663    0.22027    0.97237    1.000
    C360     C        0.02256    0.11991    0.31897    1.000
    H328     H        0.99913    0.09677    0.27957    1.000
    H329     H        0.03973    0.10957    0.35437    1.000
    H330     H        0.01143    0.13097    0.37527    1.000
    Zn16     Zn       0.48647    0.13530    0.55666    1.000
    O61      O        0.23901    0.02813    0.11142    1.000
    O62      O        0.21368    0.96874    0.01154    1.000
    O63      O        0.60145    0.45711    0.55754    1.000
    O64      O        0.59170    0.44375    0.73890    1.000
    N61      N        0.45386    0.11048    0.69433    1.000
    N62      N        0.47217    0.11055    0.79181    1.000
    H331     H        0.49940    0.12110    0.80110    1.000
    N63      N        0.46303    0.19361    0.45344    1.000
    H332     H        0.44460    0.17280    0.41210    1.000
    N64      N        0.48986    0.19031    0.52432    1.000
    C361     C        0.36284    0.05985    0.88000    1.000
    C362     C        0.24179    0.00453    0.03770    1.000
    C363     C        0.28397    0.02390    0.98150    1.000
    C364     C        0.31670    0.06258    0.01750    1.000
    H333     H        0.31220    0.07700    0.07630    1.000
    C365     C        0.35586    0.08004    0.96780    1.000
    H334     H        0.37820    0.10610    0.99380    1.000
    C366     C        0.32975    0.02137    0.84310    1.000
    H335     H        0.33400    0.00740    0.78270    1.000
    C367     C        0.29065    0.00332    0.89440    1.000
    H336     H        0.26850    0.97690    0.86980    1.000
    C368     C        0.40436    0.07982    0.82490    1.000
    C369     C        0.41246    0.09161    0.71370    1.000
    C370     C        0.44332    0.09242    0.87240    1.000
    C371     C        0.38139    0.08589    0.62560    1.000
    H337     H        0.35280    0.07140    0.65650    1.000
    H338     H        0.38320    0.06900    0.56550    1.000
    H339     H        0.38780    0.11350    0.59710    1.000
    C372     C        0.45501    0.08819    0.98770    1.000
    H340     H        0.42950    0.07420    0.03310    1.000
    H341     H        0.47410    0.11620    0.01790    1.000
    H342     H        0.46910    0.07140    0.98770    1.000
    C373     C        0.58555    0.43265    0.64080    1.000
    C374     C        0.55911    0.38667    0.61290    1.000
    C375     C        0.54993    0.37363    0.50370    1.000
    H343     H        0.55790    0.39390    0.44660    1.000
    C376     C        0.52925    0.33130    0.47790    1.000
    H344     H        0.52280    0.32290    0.40300    1.000
    C377     C        0.51764    0.30065    0.55920    1.000
    C378     C        0.52524    0.31400    0.66880    1.000
    H345     H        0.51640    0.29370    0.72630    1.000
    C379     C        0.54562    0.35661    0.69480    1.000
    H346     H        0.55030    0.36510    0.76990    1.000
    C380     C        0.49935    0.25574    0.53040    1.000
    C381     C        0.46797    0.23253    0.45400    1.000
    C382     C        0.51220    0.22817    0.57190    1.000
    C383     C        0.44199    0.24384    0.38330    1.000
    H347     H        0.45030    0.27340    0.39560    1.000
    H348     H        0.41220    0.22590    0.40220    1.000
    H349     H        0.44640    0.23970    0.30570    1.000
    C384     C        0.54676    0.23599    0.65230    1.000
    H350     H        0.56990    0.23570    0.61290    1.000
    H351     H        0.55710    0.26350    0.68770    1.000
    H352     H        0.53570    0.21380    0.70860    1.000
    Zn17     Zn       0.15314    0.46863    0.88999    1.000
    O65      O        0.90568    0.36146    0.44475    1.000
    O66      O        0.88035    0.30207    0.34487    1.000
    O67      O        0.26812    0.79044    0.89087    1.000
    O68      O        0.25837    0.77708    0.07223    1.000
    N65      N        0.12053    0.44381    0.02766    1.000
    N66      N        0.13884    0.44388    0.12514    1.000
    H353     H        0.16607    0.45443    0.13443    1.000
    N67      N        0.12970    0.52694    0.78677    1.000
    H354     H        0.11127    0.50613    0.74543    1.000
    N68      N        0.15653    0.52364    0.85765    1.000
    C385     C        0.02951    0.39318    0.21333    1.000
    C386     C        0.90846    0.33786    0.37103    1.000
    C387     C        0.95064    0.35723    0.31483    1.000
    C388     C        0.98337    0.39591    0.35083    1.000
    H355     H        0.97887    0.41033    0.40963    1.000
    C389     C        0.02253    0.41337    0.30113    1.000
    H356     H        0.04487    0.43943    0.32713    1.000
    C390     C        0.99642    0.35470    0.17643    1.000
    H357     H        0.00067    0.34073    0.11603    1.000
    C391     C        0.95732    0.33665    0.22773    1.000
    H358     H        0.93517    0.31023    0.20313    1.000
    C392     C        0.07103    0.41315    0.15823    1.000
    C393     C        0.07913    0.42494    0.04703    1.000
    C394     C        0.10999    0.42575    0.20573    1.000
    C395     C        0.04806    0.41922    0.95893    1.000
    H359     H        0.01947    0.40473    0.98983    1.000
    H360     H        0.04987    0.40233    0.89883    1.000
    H361     H        0.05447    0.44683    0.93043    1.000
    C396     C        0.12168    0.42152    0.32103    1.000
    H362     H        0.09617    0.40753    0.36643    1.000
    H363     H        0.14077    0.44953    0.35123    1.000
    H364     H        0.13577    0.40473    0.32103    1.000
    C397     C        0.25222    0.76598    0.97413    1.000
    C398     C        0.22578    0.72000    0.94623    1.000
    C399     C        0.21660    0.70696    0.83703    1.000
    H365     H        0.22457    0.72723    0.77993    1.000
    C400     C        0.19592    0.66463    0.81123    1.000
    H366     H        0.18947    0.65623    0.73633    1.000
    C401     C        0.18431    0.63398    0.89253    1.000
    C402     C        0.19191    0.64733    0.00213    1.000
    H367     H        0.18307    0.62703    0.05963    1.000
    C403     C        0.21229    0.68994    0.02813    1.000
    H368     H        0.21697    0.69843    0.10323    1.000
    C404     C        0.16602    0.58907    0.86373    1.000
    C405     C        0.13464    0.56586    0.78733    1.000
    C406     C        0.17887    0.56150    0.90523    1.000
    C407     C        0.10866    0.57717    0.71663    1.000
    H369     H        0.11697    0.60673    0.72893    1.000
    H370     H        0.07887    0.55923    0.73553    1.000
    H371     H        0.11307    0.57303    0.63903    1.000
    C408     C        0.21343    0.56932    0.98563    1.000
    H372     H        0.23657    0.56903    0.94623    1.000
    H373     H        0.22377    0.59683    0.02103    1.000
    H374     H        0.20237    0.54713    0.04193    1.000
    Zn18     Zn       0.81980    0.80197    0.22333    1.000
    O69      O        0.57234    0.69480    0.77809    1.000
    O70      O        0.54701    0.63541    0.67821    1.000
    O71      O        0.93478    0.12378    0.22421    1.000
    O72      O        0.92503    0.11042    0.40557    1.000
    N69      N        0.78719    0.77715    0.36100    1.000
    N70      N        0.80550    0.77722    0.45848    1.000
    H375     H        0.83273    0.78777    0.46777    1.000
    N71      N        0.79636    0.86028    0.12011    1.000
    H376     H        0.77793    0.83947    0.07877    1.000
    N72      N        0.82319    0.85698    0.19099    1.000
    C409     C        0.69617    0.72652    0.54667    1.000
    C410     C        0.57512    0.67120    0.70437    1.000
    C411     C        0.61730    0.69057    0.64817    1.000
    C412     C        0.65003    0.72925    0.68417    1.000
    H377     H        0.64553    0.74367    0.74297    1.000
    C413     C        0.68919    0.74671    0.63447    1.000
    H378     H        0.71153    0.77277    0.66047    1.000
    C414     C        0.66308    0.68804    0.50977    1.000
    H379     H        0.66733    0.67407    0.44937    1.000
    C415     C        0.62398    0.66999    0.56107    1.000
    H380     H        0.60183    0.64357    0.53647    1.000
    C416     C        0.73769    0.74649    0.49157    1.000
    C417     C        0.74579    0.75828    0.38037    1.000
    C418     C        0.77665    0.75909    0.53907    1.000
    C419     C        0.71472    0.75256    0.29227    1.000
    H381     H        0.68613    0.73807    0.32317    1.000
    H382     H        0.71653    0.73567    0.23217    1.000
    H383     H        0.72113    0.78017    0.26377    1.000
    C420     C        0.78834    0.75486    0.65437    1.000
    H384     H        0.76283    0.74087    0.69977    1.000
    H385     H        0.80743    0.78287    0.68457    1.000
    H386     H        0.80243    0.73807    0.65437    1.000
    C421     C        0.91888    0.09932    0.30747    1.000
    C422     C        0.89244    0.05334    0.27957    1.000
    C423     C        0.88326    0.04030    0.17037    1.000
    H387     H        0.89123    0.06057    0.11327    1.000
    C424     C        0.86258    0.99797    0.14457    1.000
    H388     H        0.85613    0.98957    0.06967    1.000
    C425     C        0.85097    0.96732    0.22587    1.000
    C426     C        0.85857    0.98067    0.33547    1.000
    H389     H        0.84973    0.96037    0.39297    1.000
    C427     C        0.87895    0.02328    0.36147    1.000
    H390     H        0.88363    0.03177    0.43657    1.000
    C428     C        0.83268    0.92241    0.19707    1.000
    C429     C        0.80130    0.89920    0.12067    1.000
    C430     C        0.84553    0.89484    0.23857    1.000
    C431     C        0.77532    0.91051    0.04997    1.000
    H391     H        0.78363    0.94007    0.06227    1.000
    H392     H        0.74553    0.89257    0.06887    1.000
    H393     H        0.77973    0.90637    0.97237    1.000
    C432     C        0.88009    0.90266    0.31897    1.000
    H394     H        0.90323    0.90237    0.27957    1.000
    H395     H        0.89043    0.93017    0.35437    1.000
    H396     H        0.86903    0.88047    0.37527    1.000
