# CIF file generated by openbabel 3.1.0, see https://openbabel.org
data_I
_chemical_name_common 'WISTID_clean'
_cell_length_a 7.9974
_cell_length_b 10.3744
_cell_length_c 12.6106
_cell_angle_alpha 90.316
_cell_angle_beta 90.311
_cell_angle_gamma 107.047
_space_group_name_H-M_alt 'P 1'
_space_group_name_Hall 'P 1'
loop_
    _symmetry_equiv_pos_as_xyz
    x,y,z
loop_
    _atom_site_label
    _atom_site_type_symbol
    _atom_site_fract_x
    _atom_site_fract_y
    _atom_site_fract_z
    _atom_site_occupancy
    Zn1      Zn       0.55635    0.21007    0.76248    1.000
    Zn2      Zn       0.17760    0.12851    0.94333    1.000
    Zn3      Zn       0.44365    0.78993    0.23752    1.000
    Zn4      Zn       0.82240    0.87149    0.05667    1.000
    H1       H        0.97180    0.08550    0.65410    1.000
    H2       H        0.85790    0.04250    0.48700    1.000
    H3       H        0.55830    0.59910    0.75340    1.000
    H4       H        0.44070    0.76580    0.60070    1.000
    H5       H        0.77980    0.46530    0.00580    1.000
    H6       H        0.44170    0.40090    0.24660    1.000
    H7       H        0.76070    0.24020    0.00500    1.000
    H8       H        0.22020    0.53470    0.99420    1.000
    H9       H        0.55930    0.23420    0.39930    1.000
    H10      H        0.23930    0.75980    0.99500    1.000
    H11      H        0.02820    0.91450    0.34590    1.000
    H12      H        0.14210    0.95750    0.51300    1.000
    C1       C        0.13510    0.97970    0.35620    1.000
    C2       C        0.14080    0.02510    0.16230    1.000
    C3       C        0.29150    0.59280    0.94590    1.000
    C4       C        0.61170    0.85180    0.71510    1.000
    C5       C        0.22390    0.04940    0.26860    1.000
    C6       C        0.70850    0.40720    0.05410    1.000
    C7       C        0.50530    0.36710    0.19790    1.000
    C8       C        0.40510    0.81610    0.87350    1.000
    C9       C        0.59490    0.18390    0.12650    1.000
    C10      C        0.57950    0.86130    0.41450    1.000
    C11      C        0.30270    0.72720    0.94540    1.000
    C12      C        0.35830    0.10190    0.47350    1.000
    C13      C        0.49470    0.63290    0.80210    1.000
    C14      C        0.69730    0.27280    0.05460    1.000
    C15      C        0.61100    0.45470    0.12700    1.000
    C16      C        0.45130    0.17090    0.38720    1.000
    C17      C        0.54870    0.82910    0.61280    1.000
    C18      C        0.38830    0.14820    0.28490    1.000
    C19      C        0.79730    0.99430    0.54390    1.000
    C20      C        0.50960    0.76950    0.80090    1.000
    C21      C        0.86490    0.02030    0.64380    1.000
    C22      C        0.60030    0.03860    0.12320    1.000
    C23      C        0.42050    0.13870    0.58550    1.000
    C24      C        0.64170    0.89810    0.52650    1.000
    C25      C        0.85920    0.97490    0.83770    1.000
    C26      C        0.39970    0.96140    0.87680    1.000
    C27      C        0.37920    0.39820    0.86660    1.000
    C28      C        0.38900    0.54530    0.87300    1.000
    C29      C        0.49040    0.23050    0.19910    1.000
    C30      C        0.77610    0.95060    0.73140    1.000
    C31      C        0.20270    0.00570    0.45610    1.000
    C32      C        0.62080    0.60180    0.13340    1.000
    O1       O        0.33260    0.08820    0.66260    1.000
    O2       O        0.04120    0.90770    0.14100    1.000
    O3       O        0.95880    0.09230    0.85900    1.000
    O4       O        0.26750    0.32050    0.92590    1.000
    O5       O        0.83130    0.87920    0.90130    1.000
    O6       O        0.66740    0.91180    0.33740    1.000
    O7       O        0.57020    0.21960    0.60030    1.000
    O8       O        0.42980    0.78040    0.39970    1.000
    O9       O        0.53750    0.05320    0.85360    1.000
    O10      O        0.74160    0.02280    0.09550    1.000
    O11      O        0.46250    0.94680    0.14640    1.000
    O12      O        0.25840    0.97720    0.90450    1.000
    O13      O        0.73250    0.67950    0.07410    1.000
    O14      O        0.48210    0.36390    0.80680    1.000
    O15      O        0.16870    0.12080    0.09870    1.000
    O16      O        0.51790    0.63610    0.19320    1.000
