# CIF file generated by openbabel 3.1.0, see https://openbabel.org
data_I
_chemical_name_common 'ANOMUM_clean'
_cell_length_a 10.3036
_cell_length_b 15.2248
_cell_length_c 20.4069
_cell_angle_alpha 68.0974
_cell_angle_beta 75.3772
_cell_angle_gamma 90
_space_group_name_H-M_alt 'P 1'
_space_group_name_Hall 'P 1'
loop_
    _symmetry_equiv_pos_as_xyz
    x,y,z
loop_
    _atom_site_label
    _atom_site_type_symbol
    _atom_site_fract_x
    _atom_site_fract_y
    _atom_site_fract_z
    _atom_site_occupancy
    Cu1      Cu       0.61855    0.52527    0.94946    1.000
    Cu2      Cu       0.06801    0.97473    0.05054    1.000
    Cu3      Cu       0.93199    0.02527    0.94946    1.000
    Cu4      Cu       0.38145    0.47473    0.05054    1.000
    H1       H        0.48430    0.75670    0.78240    1.000
    H2       H        0.24110    0.82260    0.56460    1.000
    H3       H        0.76670    0.74330    0.21760    1.000
    H4       H        0.30570    0.67740    0.43540    1.000
    H5       H        0.23330    0.96090    0.78240    1.000
    H6       H        0.69430    0.11280    0.56460    1.000
    H7       H        0.51570    0.53910    0.21760    1.000
    H8       H        0.75890    0.38720    0.43540    1.000
    H9       H        0.51570    0.24330    0.21760    1.000
    H10      H        0.75890    0.17740    0.43540    1.000
    H11      H        0.23330    0.25670    0.78240    1.000
    H12      H        0.69430    0.32260    0.56460    1.000
    H13      H        0.76670    0.03910    0.21760    1.000
    H14      H        0.30570    0.88720    0.43540    1.000
    H15      H        0.48430    0.46090    0.78240    1.000
    H16      H        0.24110    0.61280    0.56460    1.000
    H17      H        0.26250    0.76250    0.97500    1.000
    H18      H        0.73750    0.73750    0.02500    1.000
    H19      H        0.73750    0.23750    0.02500    1.000
    H20      H        0.26250    0.26250    0.97500    1.000
    C1       C        0.42840    0.65415    0.92620    1.000
    C2       C        0.37712    0.74471    0.88536    1.000
    C3       C        0.41908    0.78433    0.80864    1.000
    C4       C        0.33192    0.86662    0.65796    1.000
    C5       C        0.37471    0.90731    0.57618    1.000
    C6       C        0.31180    0.87310    0.53860    1.000
    C7       C        0.85460    0.84585    0.07380    1.000
    C8       C        0.76248    0.75529    0.11464    1.000
    C9       C        0.72772    0.71567    0.19136    1.000
    C10      C        0.48988    0.63338    0.34204    1.000
    C11      C        0.45089    0.59269    0.42382    1.000
    C12      C        0.35040    0.62690    0.46140    1.000
    C13      C        0.14540    0.91965    0.92620    1.000
    C14      C        0.23752    0.86993    0.88536    1.000
    C15      C        0.27228    0.90703    0.80864    1.000
    C16      C        0.51012    0.97542    0.65796    1.000
    C17      C        0.54911    0.01651    0.57618    1.000
    C18      C        0.64960    0.08830    0.53860    1.000
    C19      C        0.57160    0.58035    0.07380    1.000
    C20      C        0.62288    0.63007    0.11464    1.000
    C21      C        0.58092    0.59297    0.19136    1.000
    C22      C        0.66808    0.52458    0.34204    1.000
    C23      C        0.62529    0.48349    0.42382    1.000
    C24      C        0.68820    0.41170    0.46140    1.000
    C25      C        0.57160    0.34585    0.07380    1.000
    C26      C        0.62288    0.25529    0.11464    1.000
    C27      C        0.58092    0.21567    0.19136    1.000
    C28      C        0.66808    0.13338    0.34204    1.000
    C29      C        0.62529    0.09269    0.42382    1.000
    C30      C        0.68820    0.12690    0.46140    1.000
    C31      C        0.14540    0.15415    0.92620    1.000
    C32      C        0.23752    0.24471    0.88536    1.000
    C33      C        0.27228    0.28433    0.80864    1.000
    C34      C        0.51012    0.36662    0.65796    1.000
    C35      C        0.54911    0.40731    0.57618    1.000
    C36      C        0.64960    0.37310    0.53860    1.000
    C37      C        0.85460    0.08035    0.07380    1.000
    C38      C        0.76248    0.13007    0.11464    1.000
    C39      C        0.72772    0.09297    0.19136    1.000
    C40      C        0.48988    0.02458    0.34204    1.000
    C41      C        0.45089    0.98349    0.42382    1.000
    C42      C        0.35040    0.91170    0.46140    1.000
    C43      C        0.42840    0.41965    0.92620    1.000
    C44      C        0.37712    0.36993    0.88536    1.000
    C45      C        0.41908    0.40703    0.80864    1.000
    C46      C        0.33192    0.47542    0.65796    1.000
    C47      C        0.37471    0.51651    0.57618    1.000
    C48      C        0.31180    0.58830    0.53860    1.000
    C49      C        0.28857    0.78857    0.92286    1.000
    C50      C        0.36400    0.86400    0.77200    1.000
    C51      C        0.48059    0.98059    0.53882    1.000
    C52      C        0.71143    0.71143    0.07714    1.000
    C53      C        0.63600    0.63600    0.22800    1.000
    C54      C        0.51941    0.51941    0.46118    1.000
    C55      C        0.71143    0.21143    0.07714    1.000
    C56      C        0.63600    0.13600    0.22800    1.000
    C57      C        0.51941    0.01941    0.46118    1.000
    C58      C        0.28857    0.28857    0.92286    1.000
    C59      C        0.36400    0.36400    0.77200    1.000
    C60      C        0.48059    0.48059    0.53882    1.000
    N1       N        0.40390    0.90390    0.69220    1.000
    N2       N        0.59610    0.59610    0.30780    1.000
    N3       N        0.59610    0.09610    0.30780    1.000
    N4       N        0.40390    0.40390    0.69220    1.000
    O1       O        0.54465    0.64012    0.89750    1.000
    O2       O        0.34779    0.59967    0.98520    1.000
    O3       O        0.24221    0.80381    0.69358    1.000
    O4       O        0.94215    0.85988    0.10250    1.000
    O5       O        0.83299    0.90033    0.01480    1.000
    O6       O        0.43579    0.69619    0.30642    1.000
    O7       O        0.05785    0.96238    0.89750    1.000
    O8       O        0.16701    0.91513    0.98520    1.000
    O9       O        0.56421    0.00261    0.69358    1.000
    O10      O        0.45535    0.53762    0.10250    1.000
    O11      O        0.65221    0.58487    0.01480    1.000
    O12      O        0.75779    0.49739    0.30642    1.000
    O13      O        0.45535    0.35988    0.10250    1.000
    O14      O        0.65221    0.40033    0.01480    1.000
    O15      O        0.75779    0.19619    0.30642    1.000
    O16      O        0.05785    0.14012    0.89750    1.000
    O17      O        0.16701    0.09967    0.98520    1.000
    O18      O        0.56421    0.30381    0.69358    1.000
    O19      O        0.94215    0.03762    0.10250    1.000
    O20      O        0.83299    0.08487    0.01480    1.000
    O21      O        0.43579    0.99739    0.30642    1.000
    O22      O        0.54465    0.46238    0.89750    1.000
    O23      O        0.34779    0.41513    0.98520    1.000
    O24      O        0.24221    0.50261    0.69358    1.000
