# CIF file generated by openbabel 3.1.0, see https://openbabel.org
data_I
_chemical_name_common 'image0'
_cell_length_a 9.8401
_cell_length_b 10.0517
_cell_length_c 18.0642
_cell_angle_alpha 90.221
_cell_angle_beta 93.857
_cell_angle_gamma 113.891
_space_group_name_H-M_alt 'P 1'
_space_group_name_Hall 'P 1'
loop_
    _symmetry_equiv_pos_as_xyz
    x,y,z
loop_
    _atom_site_label
    _atom_site_type_symbol
    _atom_site_fract_x
    _atom_site_fract_y
    _atom_site_fract_z
    _atom_site_occupancy
    Ce1      Ce       0.50731    0.27658    0.49638    1.000
    O1       O        0.57370    0.16180    0.60313    1.000
    O2       O        0.43640    0.41250    0.58596    1.000
    O3       O        0.55810    0.93910    0.58213    1.000
    O4       O        0.38480    0.59930    0.61815    1.000
    O5       O        0.30240    0.30950    0.42133    1.000
    O6       O        0.26790    0.50900    0.45344    1.000
    C1       C        0.39990    0.48390    0.63270    1.000
    C2       C        0.88020    0.12500    0.96540    1.000
    C3       C        0.73500    0.00100    0.93640    1.000
    H1       H        0.74690    0.91020    0.94100    1.000
    H2       H        0.65720    0.99690    0.96780    1.000
    C4       C        0.07750    0.42280    0.18540    1.000
    C5       C        0.31760    0.49140    0.75990    1.000
    H3       H        0.29760    0.57140    0.74660    1.000
    C6       C        0.19040    0.40950    0.33100    1.000
    C7       C        0.40750    0.31200    0.73120    1.000
    H4       H        0.44740    0.26900    0.69820    1.000
    C8       C        0.57580    0.04350    0.62390    1.000
    C9       C        0.21390    0.33210    0.27320    1.000
    H5       H        0.26660    0.27450    0.28260    1.000
    C10      C        0.38230    0.26000    0.80200    1.000
    H6       H        0.40760    0.18370    0.81620    1.000
    C11      C        0.71470    0.14570    0.82460    1.000
    H7       H        0.76280    0.23060    0.85370    1.000
    C12      C        0.31980    0.31950    0.85220    1.000
    C13      C        0.37390    0.42760    0.70930    1.000
    C14      C        0.29040    0.43750    0.83040    1.000
    H8       H        0.25180    0.48150    0.86360    1.000
    C15      C        0.60520    0.03080    0.70590    1.000
    C16      C        0.60720    0.88850    0.81230    1.000
    H9       H        0.58030    0.79790    0.83330    1.000
    C17      C        0.68380    0.01250    0.85620    1.000
    C18      C        0.29850    0.47670    0.03960    1.000
    H10      H        0.36050    0.43960    0.06820    1.000
    H11      H        0.28040    0.54630    0.06940    1.000
    H12      H        0.34770    0.52300    0.99670    1.000
    C19      C        0.01220    0.14020    0.93470    1.000
    C20      C        0.29080    0.25940    0.92900    1.000
    H13      H        0.37700    0.31600    0.96000    1.000
    C21      C        0.67530    0.15500    0.75050    1.000
    H14      H        0.69620    0.24580    0.73060    1.000
    C22      C        0.10680    0.49020    0.31580    1.000
    H15      H        0.08840    0.54120    0.35410    1.000
    C23      C        0.14740    0.25190    0.95980    1.000
    C24      C        0.15880    0.34020    0.20120    1.000
    H16      H        0.17690    0.28910    0.16290    1.000
    C25      C        0.56910    0.89590    0.73720    1.000
    H17      H        0.51970    0.81100    0.70820    1.000
    C26      C        0.74550    0.19470    0.06320    1.000
    H18      H        0.68530    0.23430    0.03490    1.000
    H19      H        0.77360    0.24200    0.11150    1.000
    H20      H        0.68960    0.09220    0.06820    1.000
    C27      C        0.88490    0.21960    0.02340    1.000
    C28      C        0.02370    0.44280    0.10670    1.000
    H21      H        0.92390    0.43900    0.10810    1.000
    H22      H        0.08730    0.53960    0.09200    1.000
    C29      C        0.25850    0.40860    0.40780    1.000
    C30      C        0.05070    0.49540    0.24440    1.000
    H23      H        0.99350    0.54890    0.23560    1.000
    C31      C        0.02010    0.33540    0.04700    1.000
    C32      C        0.00810    0.03300    0.87490    1.000
    H24      H        0.05190    0.96990    0.89500    1.000
    H25      H        0.06320    0.08480    0.83470    1.000
    H26      H        0.90660    0.97600    0.85710    1.000
    C33      C        0.15110    0.35210    0.01500    1.000
    H27      H        0.29300    0.16400    0.92700    1.000
    Ce2      Ce       0.49269    0.72342    0.50362    1.000
    O7       O        0.42630    0.83820    0.39687    1.000
    O8       O        0.56360    0.58750    0.41404    1.000
    O9       O        0.44190    0.06090    0.41787    1.000
    O10      O        0.61520    0.40070    0.38185    1.000
    O11      O        0.69760    0.69050    0.57867    1.000
    O12      O        0.73210    0.49100    0.54656    1.000
    C34      C        0.60010    0.51610    0.36730    1.000
    C35      C        0.11980    0.87500    0.03460    1.000
    C36      C        0.26500    0.99900    0.06360    1.000
    H28      H        0.25310    0.08980    0.05900    1.000
    H29      H        0.34280    0.00310    0.03220    1.000
    C37      C        0.92250    0.57720    0.81460    1.000
    C38      C        0.68240    0.50860    0.24010    1.000
    H30      H        0.70240    0.42860    0.25340    1.000
    C39      C        0.80960    0.59050    0.66900    1.000
    C40      C        0.59250    0.68800    0.26880    1.000
    H31      H        0.55260    0.73100    0.30180    1.000
    C41      C        0.42420    0.95650    0.37610    1.000
    C42      C        0.78610    0.66790    0.72680    1.000
    H32      H        0.73340    0.72550    0.71740    1.000
    C43      C        0.61770    0.74000    0.19800    1.000
    H33      H        0.59240    0.81630    0.18380    1.000
    C44      C        0.28530    0.85430    0.17540    1.000
    H34      H        0.23720    0.76940    0.14630    1.000
    C45      C        0.68020    0.68050    0.14780    1.000
    C46      C        0.62610    0.57240    0.29070    1.000
    C47      C        0.70960    0.56250    0.16960    1.000
    H35      H        0.74820    0.51850    0.13640    1.000
    C48      C        0.39480    0.96920    0.29410    1.000
    C49      C        0.39280    0.11150    0.18770    1.000
    H36      H        0.41970    0.20210    0.16670    1.000
    C50      C        0.31620    0.98750    0.14380    1.000
    C51      C        0.70150    0.52330    0.96040    1.000
    H37      H        0.63950    0.56040    0.93180    1.000
    H38      H        0.71960    0.45370    0.93060    1.000
    H39      H        0.65230    0.47700    0.00330    1.000
    C52      C        0.98780    0.85980    0.06530    1.000
    C53      C        0.70920    0.74060    0.07100    1.000
    H40      H        0.62300    0.68400    0.04000    1.000
    C54      C        0.32470    0.84500    0.24950    1.000
    H41      H        0.30380    0.75420    0.26940    1.000
    C55      C        0.89320    0.50980    0.68420    1.000
    H42      H        0.91160    0.45880    0.64590    1.000
    C56      C        0.85260    0.74810    0.04020    1.000
    C57      C        0.84120    0.65980    0.79880    1.000
    H43      H        0.82310    0.71090    0.83710    1.000
    C58      C        0.43090    0.10410    0.26280    1.000
    H44      H        0.48030    0.18900    0.29180    1.000
    C59      C        0.25450    0.80530    0.93680    1.000
    H45      H        0.31470    0.76570    0.96510    1.000
    H46      H        0.22640    0.75800    0.88850    1.000
    H47      H        0.31040    0.90780    0.93180    1.000
    C60      C        0.11510    0.78040    0.97660    1.000
    C61      C        0.97630    0.55720    0.89330    1.000
    H48      H        0.07610    0.56100    0.89190    1.000
    H49      H        0.91270    0.46040    0.90800    1.000
    C62      C        0.74150    0.59140    0.59220    1.000
    C63      C        0.94930    0.50460    0.75560    1.000
    H50      H        0.00650    0.45110    0.76440    1.000
    C64      C        0.97990    0.66460    0.95300    1.000
    C65      C        0.99190    0.96700    0.12510    1.000
    H51      H        0.94810    0.03010    0.10500    1.000
    H52      H        0.93680    0.91520    0.16530    1.000
    H53      H        0.09340    0.02400    0.14290    1.000
    C66      C        0.84890    0.64790    0.98500    1.000
    H54      H        0.70700    0.83600    0.07300    1.000
