# CIF file generated by openbabel 3.1.0, see https://openbabel.org
data_I
_chemical_name_common 'image0'
_cell_length_a 13.3282
_cell_length_b 13.3282
_cell_length_c 13.0501
_cell_angle_alpha 90
_cell_angle_beta 90
_cell_angle_gamma 120
_space_group_name_H-M_alt 'P 1'
_space_group_name_Hall 'P 1'
loop_
    _symmetry_equiv_pos_as_xyz
    x,y,z
loop_
    _atom_site_label
    _atom_site_type_symbol
    _atom_site_fract_x
    _atom_site_fract_y
    _atom_site_fract_z
    _atom_site_occupancy
    N1       N        0.07430    0.64880    0.55210    1.000
    N2       N        0.18270    0.63770    0.67320    1.000
    C1       C        0.18040    0.67020    0.57890    1.000
    H1       H        0.24450    0.70410    0.53580    1.000
    N3       N        0.51770    0.21120    0.36420    1.000
    C2       C        0.00460    0.59890    0.63460    1.000
    H2       H        0.92600    0.57410    0.63930    1.000
    N4       N        0.34340    0.08230    0.41440    1.000
    C3       C        0.03940    0.67220    0.45200    1.000
    H3       H        0.95710    0.61960    0.44280    1.000
    H4       H        0.07980    0.65590    0.39860    1.000
    C4       C        0.07140    0.59260    0.70750    1.000
    H5       H        0.04580    0.56200    0.77260    1.000
    C5       C        0.52200    0.17980    0.46390    1.000
    H6       H        0.58890    0.20890    0.50350    1.000
    C6       C        0.41600    0.10150    0.49530    1.000
    H7       H        0.39550    0.06680    0.55950    1.000
    C7       C        0.40760    0.14790    0.33690    1.000
    H8       H        0.37890    0.14910    0.27230    1.000
    C8       C        0.21850    0.00070    0.41400    1.000
    H9       H        0.18160    0.02270    0.46650    1.000
    H10      H        0.18640    0.00400    0.34820    1.000
    C9       C        0.06310    0.79260    0.43940    1.000
    H11      H        0.03000    0.81240    0.49670    1.000
    H12      H        0.02590    0.79770    0.37720    1.000
    C10      C        0.19370    0.88010    0.43340    1.000
    H13      H        0.22760    0.85720    0.37890    1.000
    H14      H        0.23000    0.87830    0.49730    1.000
    N5       N        0.35120    0.42550    0.55210    1.000
    N6       N        0.36230    0.54500    0.67320    1.000
    C11      C        0.32980    0.51020    0.57890    1.000
    H15      H        0.29590    0.54040    0.53580    1.000
    N7       N        0.78880    0.30650    0.36420    1.000
    C12      C        0.40110    0.40570    0.63460    1.000
    H16      H        0.42590    0.35190    0.63930    1.000
    N8       N        0.91770    0.26110    0.41440    1.000
    C13      C        0.32780    0.36720    0.45200    1.000
    H17      H        0.38040    0.33750    0.44280    1.000
    H18      H        0.34410    0.42390    0.39860    1.000
    C14      C        0.40740    0.47880    0.70750    1.000
    H19      H        0.43800    0.48380    0.77260    1.000
    C15      C        0.82020    0.34220    0.46390    1.000
    H20      H        0.79110    0.38000    0.50350    1.000
    C16      C        0.89850    0.31450    0.49530    1.000
    H21      H        0.93320    0.32870    0.55950    1.000
    C17      C        0.85210    0.25970    0.33690    1.000
    H22      H        0.85090    0.22980    0.27230    1.000
    C18      C        0.99930    0.21780    0.41400    1.000
    H23      H        0.97730    0.15890    0.46650    1.000
    H24      H        0.99600    0.18240    0.34820    1.000
    C19      C        0.20740    0.27050    0.43940    1.000
    H25      H        0.18760    0.21760    0.49670    1.000
    H26      H        0.20230    0.22820    0.37720    1.000
    C20      C        0.11990    0.31360    0.43340    1.000
    H27      H        0.14280    0.37040    0.37890    1.000
    H28      H        0.12170    0.35170    0.49730    1.000
    N9       N        0.57450    0.92570    0.55210    1.000
    N10      N        0.45500    0.81730    0.67320    1.000
    C21      C        0.48980    0.81960    0.57890    1.000
    H29      H        0.45960    0.75550    0.53580    1.000
    N11      N        0.69350    0.48230    0.36420    1.000
    C22      C        0.59430    0.99540    0.63460    1.000
    H30      H        0.64810    0.07400    0.63930    1.000
    N12      N        0.73890    0.65660    0.41440    1.000
    C23      C        0.63280    0.96060    0.45200    1.000
    H31      H        0.66250    0.04290    0.44280    1.000
    H32      H        0.57610    0.92020    0.39860    1.000
    C24      C        0.52120    0.92860    0.70750    1.000
    H33      H        0.51620    0.95420    0.77260    1.000
    C25      C        0.65780    0.47800    0.46390    1.000
    H34      H        0.62000    0.41110    0.50350    1.000
    C26      C        0.68550    0.58400    0.49530    1.000
    H35      H        0.67130    0.60450    0.55950    1.000
    C27      C        0.74030    0.59240    0.33690    1.000
    H36      H        0.77020    0.62110    0.27230    1.000
    C28      C        0.78220    0.78150    0.41400    1.000
    H37      H        0.84110    0.81840    0.46650    1.000
    H38      H        0.81760    0.81360    0.34820    1.000
    C29      C        0.72950    0.93690    0.43940    1.000
    H39      H        0.78240    0.97000    0.49670    1.000
    H40      H        0.77180    0.97410    0.37720    1.000
    C30      C        0.68640    0.80630    0.43340    1.000
    H41      H        0.62960    0.77240    0.37890    1.000
    H42      H        0.64830    0.77000    0.49730    1.000
    N13      N        0.64880    0.07430    0.05210    1.000
    N14      N        0.63770    0.18270    0.17320    1.000
    C31      C        0.67020    0.18040    0.07890    1.000
    H43      H        0.70410    0.24450    0.03580    1.000
    N15      N        0.21120    0.51770    0.86420    1.000
    C32      C        0.59890    0.00460    0.13460    1.000
    H44      H        0.57410    0.92600    0.13930    1.000
    N16      N        0.08230    0.34340    0.91440    1.000
    C33      C        0.67220    0.03940    0.95200    1.000
    H45      H        0.61960    0.95710    0.94280    1.000
    H46      H        0.65590    0.07980    0.89860    1.000
    C34      C        0.59260    0.07140    0.20750    1.000
    H47      H        0.56200    0.04580    0.27260    1.000
    C35      C        0.17980    0.52200    0.96390    1.000
    H48      H        0.20890    0.58890    0.00350    1.000
    C36      C        0.10150    0.41600    0.99530    1.000
    H49      H        0.06680    0.39550    0.05950    1.000
    C37      C        0.14790    0.40760    0.83690    1.000
    H50      H        0.14910    0.37890    0.77230    1.000
    C38      C        0.00070    0.21850    0.91400    1.000
    H51      H        0.02270    0.18160    0.96650    1.000
    H52      H        0.00400    0.18640    0.84820    1.000
    C39      C        0.79260    0.06310    0.93940    1.000
    H53      H        0.81240    0.03000    0.99670    1.000
    H54      H        0.79770    0.02590    0.87720    1.000
    C40      C        0.88010    0.19370    0.93340    1.000
    H55      H        0.85720    0.22760    0.87890    1.000
    H56      H        0.87830    0.23000    0.99730    1.000
    N17      N        0.42550    0.35120    0.05210    1.000
    N18      N        0.54500    0.36230    0.17320    1.000
    C41      C        0.51020    0.32980    0.07890    1.000
    H57      H        0.54040    0.29590    0.03580    1.000
    N19      N        0.30650    0.78880    0.86420    1.000
    C42      C        0.40570    0.40110    0.13460    1.000
    H58      H        0.35190    0.42590    0.13930    1.000
    N20      N        0.26110    0.91770    0.91440    1.000
    C43      C        0.36720    0.32780    0.95200    1.000
    H59      H        0.33750    0.38040    0.94280    1.000
    H60      H        0.42390    0.34410    0.89860    1.000
    C44      C        0.47880    0.40740    0.20750    1.000
    H61      H        0.48380    0.43800    0.27260    1.000
    C45      C        0.34220    0.82020    0.96390    1.000
    H62      H        0.38000    0.79110    0.00350    1.000
    C46      C        0.31450    0.89850    0.99530    1.000
    H63      H        0.32870    0.93320    0.05950    1.000
    C47      C        0.25970    0.85210    0.83690    1.000
    H64      H        0.22980    0.85090    0.77230    1.000
    C48      C        0.21780    0.99930    0.91400    1.000
    H65      H        0.15890    0.97730    0.96650    1.000
    H66      H        0.18240    0.99600    0.84820    1.000
    C49      C        0.27050    0.20740    0.93940    1.000
    H67      H        0.21760    0.18760    0.99670    1.000
    H68      H        0.22820    0.20230    0.87720    1.000
    C50      C        0.31360    0.11990    0.93340    1.000
    H69      H        0.37040    0.14280    0.87890    1.000
    H70      H        0.35170    0.12170    0.99730    1.000
    N21      N        0.92570    0.57450    0.05210    1.000
    N22      N        0.81730    0.45500    0.17320    1.000
    C51      C        0.81960    0.48980    0.07890    1.000
    H71      H        0.75550    0.45960    0.03580    1.000
    N23      N        0.48230    0.69350    0.86420    1.000
    C52      C        0.99540    0.59430    0.13460    1.000
    H72      H        0.07400    0.64810    0.13930    1.000
    N24      N        0.65660    0.73890    0.91440    1.000
    C53      C        0.96060    0.63280    0.95200    1.000
    H73      H        0.04290    0.66250    0.94280    1.000
    H74      H        0.92020    0.57610    0.89860    1.000
    C54      C        0.92860    0.52120    0.20750    1.000
    H75      H        0.95420    0.51620    0.27260    1.000
    C55      C        0.47800    0.65780    0.96390    1.000
    H76      H        0.41110    0.62000    0.00350    1.000
    C56      C        0.58400    0.68550    0.99530    1.000
    H77      H        0.60450    0.67130    0.05950    1.000
    C57      C        0.59240    0.74030    0.83690    1.000
    H78      H        0.62110    0.77020    0.77230    1.000
    C58      C        0.78150    0.78220    0.91400    1.000
    H79      H        0.81840    0.84110    0.96650    1.000
    H80      H        0.81360    0.81760    0.84820    1.000
    C59      C        0.93690    0.72950    0.93940    1.000
    H81      H        0.97000    0.78240    0.99670    1.000
    H82      H        0.97410    0.77180    0.87720    1.000
    C60      C        0.80630    0.68640    0.93340    1.000
    H83      H        0.77240    0.62960    0.87890    1.000
    H84      H        0.77000    0.64830    0.99730    1.000
    Fe1      Fe       0.33333    0.66667    0.76689    1.000
    Fe2      Fe       0.66667    0.33333    0.26689    1.000
