# CIF file generated by openbabel 3.1.0, see https://openbabel.org
data_I
_chemical_name_common 'FERHAN_clean'
_cell_length_a 17.1031
_cell_length_b 17.1031
_cell_length_c 17.1031
_cell_angle_alpha 87.6667
_cell_angle_beta 87.6667
_cell_angle_gamma 87.6667
_space_group_name_H-M_alt 'P 1'
_space_group_name_Hall 'P 1'
loop_
    _symmetry_equiv_pos_as_xyz
    x,y,z
loop_
    _atom_site_label
    _atom_site_type_symbol
    _atom_site_fract_x
    _atom_site_fract_y
    _atom_site_fract_z
    _atom_site_occupancy
    Zn1      Zn       0.88425    0.88428    0.75374    1.000
    Zn2      Zn       0.75374    0.88425    0.88428    1.000
    Zn3      Zn       0.88428    0.75374    0.88425    1.000
    Zn4      Zn       0.75347    0.75347    0.75347    1.000
    H1       H        0.90860    0.91400    0.50330    1.000
    H2       H        0.76210    0.73170    0.38630    1.000
    H3       H        0.77020    0.72900    0.52160    1.000
    H4       H        0.99010    0.01430    0.34280    1.000
    H5       H        0.94910    0.00070    0.42770    1.000
    H6       H        0.01610    0.94010    0.39700    1.000
    H7       H        0.71780    0.88410    0.13420    1.000
    H8       H        0.92380    0.75160    0.25810    1.000
    H9       H        0.91620    0.74950    0.12260    1.000
    H10      H        0.60870    0.96300    0.28140    1.000
    H11      H        0.66030    0.97220    0.20170    1.000
    H12      H        0.61300    0.89430    0.22040    1.000
    H13      H        0.50330    0.90860    0.91400    1.000
    H14      H        0.38630    0.76210    0.73170    1.000
    H15      H        0.52160    0.77020    0.72900    1.000
    H16      H        0.34280    0.99010    0.01430    1.000
    H17      H        0.42770    0.94910    0.00070    1.000
    H18      H        0.39700    0.01610    0.94010    1.000
    H19      H        0.13420    0.71780    0.88410    1.000
    H20      H        0.25810    0.92380    0.75160    1.000
    H21      H        0.12260    0.91620    0.74950    1.000
    H22      H        0.28140    0.60870    0.96300    1.000
    H23      H        0.20170    0.66030    0.97220    1.000
    H24      H        0.22040    0.61300    0.89430    1.000
    H25      H        0.91400    0.50330    0.90860    1.000
    H26      H        0.73170    0.38630    0.76210    1.000
    H27      H        0.72900    0.52160    0.77020    1.000
    H28      H        0.01430    0.34280    0.99010    1.000
    H29      H        0.00070    0.42770    0.94910    1.000
    H30      H        0.94010    0.39700    0.01610    1.000
    H31      H        0.88410    0.13420    0.71780    1.000
    H32      H        0.75160    0.25810    0.92380    1.000
    H33      H        0.74950    0.12260    0.91620    1.000
    H34      H        0.96300    0.28140    0.60870    1.000
    H35      H        0.97220    0.20170    0.66030    1.000
    H36      H        0.89430    0.22040    0.61300    1.000
    C1       C        0.84290    0.82050    0.61240    1.000
    C2       C        0.83920    0.82140    0.52490    1.000
    C3       C        0.87890    0.87660    0.47920    1.000
    C4       C        0.87560    0.87720    0.39880    1.000
    C5       C        0.83220    0.82220    0.36370    1.000
    C6       C        0.79280    0.76860    0.40990    1.000
    C7       C        0.79690    0.76750    0.49030    1.000
    C8       C        0.97200    0.97400    0.38200    1.000
    C9       C        0.81080    0.81950    0.02840    1.000
    C10      C        0.81690    0.81900    0.11520    1.000
    C11      C        0.76060    0.85780    0.15910    1.000
    C12      C        0.76540    0.85950    0.23990    1.000
    C13      C        0.82740    0.82180    0.27650    1.000
    C14      C        0.88240    0.77990    0.23280    1.000
    C15      C        0.87780    0.77840    0.15250    1.000
    C16      C        0.64250    0.93520    0.24330    1.000
    C17      C        0.61240    0.84290    0.82050    1.000
    C18      C        0.52490    0.83920    0.82140    1.000
    C19      C        0.47920    0.87890    0.87660    1.000
    C20      C        0.39880    0.87560    0.87720    1.000
    C21      C        0.36370    0.83220    0.82220    1.000
    C22      C        0.40990    0.79280    0.76860    1.000
    C23      C        0.49030    0.79690    0.76750    1.000
    C24      C        0.38200    0.97200    0.97400    1.000
    C25      C        0.02840    0.81080    0.81950    1.000
    C26      C        0.11520    0.81690    0.81900    1.000
    C27      C        0.15910    0.76060    0.85780    1.000
    C28      C        0.23990    0.76540    0.85950    1.000
    C29      C        0.27650    0.82740    0.82180    1.000
    C30      C        0.23280    0.88240    0.77990    1.000
    C31      C        0.15250    0.87780    0.77840    1.000
    C32      C        0.24330    0.64250    0.93520    1.000
    C33      C        0.82050    0.61240    0.84290    1.000
    C34      C        0.82140    0.52490    0.83920    1.000
    C35      C        0.87660    0.47920    0.87890    1.000
    C36      C        0.87720    0.39880    0.87560    1.000
    C37      C        0.82220    0.36370    0.83220    1.000
    C38      C        0.76860    0.40990    0.79280    1.000
    C39      C        0.76750    0.49030    0.79690    1.000
    C40      C        0.97400    0.38200    0.97200    1.000
    C41      C        0.81950    0.02840    0.81080    1.000
    C42      C        0.81900    0.11520    0.81690    1.000
    C43      C        0.85780    0.15910    0.76060    1.000
    C44      C        0.85950    0.23990    0.76540    1.000
    C45      C        0.82180    0.27650    0.82740    1.000
    C46      C        0.77990    0.23280    0.88240    1.000
    C47      C        0.77840    0.15250    0.87780    1.000
    C48      C        0.93520    0.24330    0.64250    1.000
    O1       O        0.81060    0.76930    0.65210    1.000
    O2       O        0.88100    0.87190    0.64110    1.000
    O3       O        0.91300    0.92900    0.34800    1.000
    O4       O        0.76510    0.86860    0.99470    1.000
    O5       O        0.85110    0.76680    0.99640    1.000
    O6       O        0.71030    0.89930    0.28220    1.000
    O7       O        0.65210    0.81060    0.76930    1.000
    O8       O        0.64110    0.88100    0.87190    1.000
    O9       O        0.34800    0.91300    0.92900    1.000
    O10      O        0.99470    0.76510    0.86860    1.000
    O11      O        0.99640    0.85110    0.76680    1.000
    O12      O        0.28220    0.71030    0.89930    1.000
    O13      O        0.76930    0.65210    0.81060    1.000
    O14      O        0.87190    0.64110    0.88100    1.000
    O15      O        0.92900    0.34800    0.91300    1.000
    O16      O        0.86860    0.99470    0.76510    1.000
    O17      O        0.76680    0.99640    0.85110    1.000
    O18      O        0.89930    0.28220    0.71030    1.000
    O19      O        0.81810    0.81810    0.81810    1.000
    Zn5      Zn       0.11575    0.11572    0.24626    1.000
    Zn6      Zn       0.24626    0.11575    0.11572    1.000
    Zn7      Zn       0.11572    0.24626    0.11575    1.000
    Zn8      Zn       0.24653    0.24653    0.24653    1.000
    H37      H        0.09140    0.08600    0.49670    1.000
    H38      H        0.23790    0.26830    0.61370    1.000
    H39      H        0.22980    0.27100    0.47840    1.000
    H40      H        0.00990    0.98570    0.65720    1.000
    H41      H        0.05090    0.99930    0.57230    1.000
    H42      H        0.98390    0.05990    0.60300    1.000
    H43      H        0.28220    0.11590    0.86580    1.000
    H44      H        0.07620    0.24840    0.74190    1.000
    H45      H        0.08380    0.25050    0.87740    1.000
    H46      H        0.39130    0.03700    0.71860    1.000
    H47      H        0.33970    0.02780    0.79830    1.000
    H48      H        0.38700    0.10570    0.77960    1.000
    H49      H        0.49670    0.09140    0.08600    1.000
    H50      H        0.61370    0.23790    0.26830    1.000
    H51      H        0.47840    0.22980    0.27100    1.000
    H52      H        0.65720    0.00990    0.98570    1.000
    H53      H        0.57230    0.05090    0.99930    1.000
    H54      H        0.60300    0.98390    0.05990    1.000
    H55      H        0.86580    0.28220    0.11590    1.000
    H56      H        0.74190    0.07620    0.24840    1.000
    H57      H        0.87740    0.08380    0.25050    1.000
    H58      H        0.71860    0.39130    0.03700    1.000
    H59      H        0.79830    0.33970    0.02780    1.000
    H60      H        0.77960    0.38700    0.10570    1.000
    H61      H        0.08600    0.49670    0.09140    1.000
    H62      H        0.26830    0.61370    0.23790    1.000
    H63      H        0.27100    0.47840    0.22980    1.000
    H64      H        0.98570    0.65720    0.00990    1.000
    H65      H        0.99930    0.57230    0.05090    1.000
    H66      H        0.05990    0.60300    0.98390    1.000
    H67      H        0.11590    0.86580    0.28220    1.000
    H68      H        0.24840    0.74190    0.07620    1.000
    H69      H        0.25050    0.87740    0.08380    1.000
    H70      H        0.03700    0.71860    0.39130    1.000
    H71      H        0.02780    0.79830    0.33970    1.000
    H72      H        0.10570    0.77960    0.38700    1.000
    C49      C        0.15710    0.17950    0.38760    1.000
    C50      C        0.16080    0.17860    0.47510    1.000
    C51      C        0.12110    0.12340    0.52080    1.000
    C52      C        0.12440    0.12280    0.60120    1.000
    C53      C        0.16780    0.17780    0.63630    1.000
    C54      C        0.20720    0.23140    0.59010    1.000
    C55      C        0.20310    0.23250    0.50970    1.000
    C56      C        0.02800    0.02600    0.61800    1.000
    C57      C        0.18920    0.18050    0.97160    1.000
    C58      C        0.18310    0.18100    0.88480    1.000
    C59      C        0.23940    0.14220    0.84090    1.000
    C60      C        0.23460    0.14050    0.76010    1.000
    C61      C        0.17260    0.17820    0.72350    1.000
    C62      C        0.11760    0.22010    0.76720    1.000
    C63      C        0.12220    0.22160    0.84750    1.000
    C64      C        0.35750    0.06480    0.75670    1.000
    C65      C        0.38760    0.15710    0.17950    1.000
    C66      C        0.47510    0.16080    0.17860    1.000
    C67      C        0.52080    0.12110    0.12340    1.000
    C68      C        0.60120    0.12440    0.12280    1.000
    C69      C        0.63630    0.16780    0.17780    1.000
    C70      C        0.59010    0.20720    0.23140    1.000
    C71      C        0.50970    0.20310    0.23250    1.000
    C72      C        0.61800    0.02800    0.02600    1.000
    C73      C        0.97160    0.18920    0.18050    1.000
    C74      C        0.88480    0.18310    0.18100    1.000
    C75      C        0.84090    0.23940    0.14220    1.000
    C76      C        0.76010    0.23460    0.14050    1.000
    C77      C        0.72350    0.17260    0.17820    1.000
    C78      C        0.76720    0.11760    0.22010    1.000
    C79      C        0.84750    0.12220    0.22160    1.000
    C80      C        0.75670    0.35750    0.06480    1.000
    C81      C        0.17950    0.38760    0.15710    1.000
    C82      C        0.17860    0.47510    0.16080    1.000
    C83      C        0.12340    0.52080    0.12110    1.000
    C84      C        0.12280    0.60120    0.12440    1.000
    C85      C        0.17780    0.63630    0.16780    1.000
    C86      C        0.23140    0.59010    0.20720    1.000
    C87      C        0.23250    0.50970    0.20310    1.000
    C88      C        0.02600    0.61800    0.02800    1.000
    C89      C        0.18050    0.97160    0.18920    1.000
    C90      C        0.18100    0.88480    0.18310    1.000
    C91      C        0.14220    0.84090    0.23940    1.000
    C92      C        0.14050    0.76010    0.23460    1.000
    C93      C        0.17820    0.72350    0.17260    1.000
    C94      C        0.22010    0.76720    0.11760    1.000
    C95      C        0.22160    0.84750    0.12220    1.000
    C96      C        0.06480    0.75670    0.35750    1.000
    O20      O        0.18940    0.23070    0.34790    1.000
    O21      O        0.11900    0.12810    0.35890    1.000
    O22      O        0.08700    0.07100    0.65200    1.000
    O23      O        0.23490    0.13140    0.00530    1.000
    O24      O        0.14890    0.23320    0.00360    1.000
    O25      O        0.28970    0.10070    0.71780    1.000
    O26      O        0.34790    0.18940    0.23070    1.000
    O27      O        0.35890    0.11900    0.12810    1.000
    O28      O        0.65200    0.08700    0.07100    1.000
    O29      O        0.00530    0.23490    0.13140    1.000
    O30      O        0.00360    0.14890    0.23320    1.000
    O31      O        0.71780    0.28970    0.10070    1.000
    O32      O        0.23070    0.34790    0.18940    1.000
    O33      O        0.12810    0.35890    0.11900    1.000
    O34      O        0.07100    0.65200    0.08700    1.000
    O35      O        0.13140    0.00530    0.23490    1.000
    O36      O        0.23320    0.00360    0.14890    1.000
    O37      O        0.10070    0.71780    0.28970    1.000
    O38      O        0.18190    0.18190    0.18190    1.000
