# CIF file generated by openbabel 3.1.0, see https://openbabel.org
data_I
_chemical_name_common 'image0'
_cell_length_a 9.572
_cell_length_b 17.717
_cell_length_c 13.715
_cell_angle_alpha 90
_cell_angle_beta 90
_cell_angle_gamma 90
_space_group_name_H-M_alt 'P 1'
_space_group_name_Hall 'P 1'
loop_
    _symmetry_equiv_pos_as_xyz
    x,y,z
loop_
    _atom_site_label
    _atom_site_type_symbol
    _atom_site_fract_x
    _atom_site_fract_y
    _atom_site_fract_z
    _atom_site_occupancy
    O1       O        0.73830    0.78540    0.87400    1.000
    O2       O        0.84790    0.79260    0.73400    1.000
    C1       C        0.73900    0.80170    0.78530    1.000
    C2       C        0.61160    0.83560    0.73870    1.000
    H1       H        0.52840    0.81750    0.77160    1.000
    H2       H        0.60650    0.82020    0.67090    1.000
    C3       C        0.61750    0.92170    0.74470    1.000
    C4       C        0.61770    0.95680    0.83340    1.000
    H3       H        0.61620    0.92820    0.89030    1.000
    C5       C        0.62010    0.96500    0.66080    1.000
    H4       H        0.62350    0.94150    0.60020    1.000
    N1       N        0.92930    0.62680    0.84440    1.000
    C6       C        0.70240    0.60960    0.08690    1.000
    H5       H        0.76250    0.65050    0.08080    1.000
    C7       C        0.00840    0.56850    0.87940    1.000
    H6       H        0.09780    0.58240    0.89920    1.000
    C8       C        0.97980    0.49530    0.89020    1.000
    H7       H        0.04190    0.46060    0.91700    1.000
    C9       C        0.85180    0.47700    0.85810    1.000
    C10      C        0.75980    0.53260    0.82300    1.000
    H8       H        0.67020    0.51970    0.80290    1.000
    C11      C        0.67740    0.47700    0.07620    1.000
    C12      C        0.75860    0.53920    0.07060    1.000
    H9       H        0.85300    0.53440    0.05570    1.000
    C13      C        0.80360    0.60470    0.81900    1.000
    H10      H        0.74110    0.64100    0.79680    1.000
    N2       N        0.57350    0.62450    0.11000    1.000
    C14      C        0.72770    0.38750    0.94800    1.000
    H11      H        0.67680    0.34060    0.93930    1.000
    H12      H        0.65880    0.42740    0.94310    1.000
    C15      C        0.81030    0.39460    0.86410    1.000
    H13      H        0.75770    0.38000    0.80660    1.000
    H14      H        0.89250    0.36280    0.86880    1.000
    O3       O        0.23830    0.28540    0.37400    1.000
    O4       O        0.34790    0.29260    0.23400    1.000
    C16      C        0.23900    0.30170    0.28530    1.000
    C17      C        0.11160    0.33560    0.23870    1.000
    H15      H        0.02840    0.31750    0.27160    1.000
    H16      H        0.10650    0.32020    0.17090    1.000
    C18      C        0.11750    0.42170    0.24470    1.000
    C19      C        0.11770    0.45680    0.33340    1.000
    H17      H        0.11620    0.42820    0.39030    1.000
    C20      C        0.12010    0.46500    0.16080    1.000
    H18      H        0.12350    0.44150    0.10020    1.000
    N3       N        0.42930    0.12680    0.34440    1.000
    C21      C        0.20240    0.10960    0.58690    1.000
    H19      H        0.26250    0.15050    0.58080    1.000
    C22      C        0.50840    0.06850    0.37940    1.000
    H20      H        0.59780    0.08240    0.39920    1.000
    C23      C        0.47980    0.99530    0.39020    1.000
    H21      H        0.54190    0.96060    0.41700    1.000
    C24      C        0.35180    0.97700    0.35810    1.000
    C25      C        0.25980    0.03260    0.32300    1.000
    H22      H        0.17020    0.01970    0.30290    1.000
    C26      C        0.17740    0.97700    0.57620    1.000
    C27      C        0.25860    0.03920    0.57060    1.000
    H23      H        0.35300    0.03440    0.55570    1.000
    C28      C        0.30360    0.10470    0.31900    1.000
    H24      H        0.24110    0.14100    0.29680    1.000
    N4       N        0.07350    0.12450    0.61000    1.000
    C29      C        0.22770    0.88750    0.44800    1.000
    H25      H        0.17680    0.84060    0.43930    1.000
    H26      H        0.15880    0.92740    0.44310    1.000
    C30      C        0.31030    0.89460    0.36410    1.000
    H27      H        0.25770    0.88000    0.30660    1.000
    H28      H        0.39250    0.86280    0.36880    1.000
    O5       O        0.76170    0.21460    0.37400    1.000
    O6       O        0.65210    0.20740    0.23400    1.000
    C31      C        0.76100    0.19830    0.28530    1.000
    C32      C        0.88840    0.16440    0.23870    1.000
    H29      H        0.97160    0.18250    0.27160    1.000
    H30      H        0.89350    0.17980    0.17090    1.000
    C33      C        0.88250    0.07830    0.24470    1.000
    C34      C        0.88230    0.04320    0.33340    1.000
    H31      H        0.88380    0.07180    0.39030    1.000
    C35      C        0.87990    0.03500    0.16080    1.000
    H32      H        0.87650    0.05850    0.10020    1.000
    N5       N        0.57070    0.37320    0.34440    1.000
    C36      C        0.79760    0.39040    0.58690    1.000
    H33      H        0.73750    0.34950    0.58080    1.000
    C37      C        0.49160    0.43150    0.37940    1.000
    H34      H        0.40220    0.41760    0.39920    1.000
    C38      C        0.52020    0.50470    0.39020    1.000
    H35      H        0.45810    0.53940    0.41700    1.000
    C39      C        0.64820    0.52300    0.35810    1.000
    C40      C        0.74020    0.46740    0.32300    1.000
    H36      H        0.82980    0.48030    0.30290    1.000
    C41      C        0.82260    0.52300    0.57620    1.000
    C42      C        0.74140    0.46080    0.57060    1.000
    H37      H        0.64700    0.46560    0.55570    1.000
    C43      C        0.69640    0.39530    0.31900    1.000
    H38      H        0.75890    0.35900    0.29680    1.000
    N6       N        0.92650    0.37550    0.61000    1.000
    C44      C        0.77230    0.61250    0.44800    1.000
    H39      H        0.82320    0.65940    0.43930    1.000
    H40      H        0.84120    0.57260    0.44310    1.000
    C45      C        0.68970    0.60540    0.36410    1.000
    H41      H        0.74230    0.62000    0.30660    1.000
    H42      H        0.60750    0.63720    0.36880    1.000
    O7       O        0.26170    0.71460    0.87400    1.000
    O8       O        0.15210    0.70740    0.73400    1.000
    C46      C        0.26100    0.69830    0.78530    1.000
    C47      C        0.38840    0.66440    0.73870    1.000
    H43      H        0.47160    0.68250    0.77160    1.000
    H44      H        0.39350    0.67980    0.67090    1.000
    C48      C        0.38250    0.57830    0.74470    1.000
    C49      C        0.38230    0.54320    0.83340    1.000
    H45      H        0.38380    0.57180    0.89030    1.000
    C50      C        0.37990    0.53500    0.66080    1.000
    H46      H        0.37650    0.55850    0.60020    1.000
    N7       N        0.07070    0.87320    0.84440    1.000
    C51      C        0.29760    0.89040    0.08690    1.000
    H47      H        0.23750    0.84950    0.08080    1.000
    C52      C        0.99160    0.93150    0.87940    1.000
    H48      H        0.90220    0.91760    0.89920    1.000
    C53      C        0.02020    0.00470    0.89020    1.000
    H49      H        0.95810    0.03940    0.91700    1.000
    C54      C        0.14820    0.02300    0.85810    1.000
    C55      C        0.24020    0.96740    0.82300    1.000
    H50      H        0.32980    0.98030    0.80290    1.000
    C56      C        0.32260    0.02300    0.07620    1.000
    C57      C        0.24140    0.96080    0.07060    1.000
    H51      H        0.14700    0.96560    0.05570    1.000
    C58      C        0.19640    0.89530    0.81900    1.000
    H52      H        0.25890    0.85900    0.79680    1.000
    N8       N        0.42650    0.87550    0.11000    1.000
    C59      C        0.27230    0.11250    0.94800    1.000
    H53      H        0.32320    0.15940    0.93930    1.000
    H54      H        0.34120    0.07260    0.94310    1.000
    C60      C        0.18970    0.10540    0.86410    1.000
    H55      H        0.24230    0.12000    0.80660    1.000
    H56      H        0.10750    0.13720    0.86880    1.000
    O9       O        0.26170    0.28540    0.62600    1.000
    O10      O        0.15210    0.29260    0.76600    1.000
    C61      C        0.26100    0.30170    0.71470    1.000
    C62      C        0.38840    0.33560    0.76130    1.000
    H57      H        0.47160    0.31750    0.72840    1.000
    H58      H        0.39350    0.32020    0.82910    1.000
    C63      C        0.38250    0.42170    0.75530    1.000
    C64      C        0.38230    0.45680    0.66660    1.000
    H59      H        0.38380    0.42820    0.60970    1.000
    C65      C        0.37990    0.46500    0.83920    1.000
    H60      H        0.37650    0.44150    0.89980    1.000
    N9       N        0.07070    0.12680    0.65560    1.000
    C66      C        0.29760    0.10960    0.41310    1.000
    H61      H        0.23750    0.15050    0.41920    1.000
    C67      C        0.99160    0.06850    0.62060    1.000
    H62      H        0.90220    0.08240    0.60080    1.000
    C68      C        0.02020    0.99530    0.60980    1.000
    H63      H        0.95810    0.96060    0.58300    1.000
    C69      C        0.14820    0.97700    0.64190    1.000
    C70      C        0.24020    0.03260    0.67700    1.000
    H64      H        0.32980    0.01970    0.69710    1.000
    C71      C        0.32260    0.97700    0.42380    1.000
    C72      C        0.24140    0.03920    0.42940    1.000
    H65      H        0.14700    0.03440    0.44430    1.000
    C73      C        0.19640    0.10470    0.68100    1.000
    H66      H        0.25890    0.14100    0.70320    1.000
    N10      N        0.42650    0.12450    0.39000    1.000
    C74      C        0.27230    0.88750    0.55200    1.000
    H67      H        0.32320    0.84060    0.56070    1.000
    H68      H        0.34120    0.92740    0.55690    1.000
    C75      C        0.18970    0.89460    0.63590    1.000
    H69      H        0.24230    0.88000    0.69340    1.000
    H70      H        0.10750    0.86280    0.63120    1.000
    O11      O        0.76170    0.78540    0.12600    1.000
    O12      O        0.65210    0.79260    0.26600    1.000
    C76      C        0.76100    0.80170    0.21470    1.000
    C77      C        0.88840    0.83560    0.26130    1.000
    H71      H        0.97160    0.81750    0.22840    1.000
    H72      H        0.89350    0.82020    0.32910    1.000
    C78      C        0.88250    0.92170    0.25530    1.000
    C79      C        0.88230    0.95680    0.16660    1.000
    H73      H        0.88380    0.92820    0.10970    1.000
    C80      C        0.87990    0.96500    0.33920    1.000
    H74      H        0.87650    0.94150    0.39980    1.000
    N11      N        0.57070    0.62680    0.15560    1.000
    C81      C        0.79760    0.60960    0.91310    1.000
    H75      H        0.73750    0.65050    0.91920    1.000
    C82      C        0.49160    0.56850    0.12060    1.000
    H76      H        0.40220    0.58240    0.10080    1.000
    C83      C        0.52020    0.49530    0.10980    1.000
    H77      H        0.45810    0.46060    0.08300    1.000
    C84      C        0.64820    0.47700    0.14190    1.000
    C85      C        0.74020    0.53260    0.17700    1.000
    H78      H        0.82980    0.51970    0.19710    1.000
    C86      C        0.82260    0.47700    0.92380    1.000
    C87      C        0.74140    0.53920    0.92940    1.000
    H79      H        0.64700    0.53440    0.94430    1.000
    C88      C        0.69640    0.60470    0.18100    1.000
    H80      H        0.75890    0.64100    0.20320    1.000
    N12      N        0.92650    0.62450    0.89000    1.000
    C89      C        0.77230    0.38750    0.05200    1.000
    H81      H        0.82320    0.34060    0.06070    1.000
    H82      H        0.84120    0.42740    0.05690    1.000
    C90      C        0.68970    0.39460    0.13590    1.000
    H83      H        0.74230    0.38000    0.19340    1.000
    H84      H        0.60750    0.36280    0.13120    1.000
    O13      O        0.23830    0.71460    0.12600    1.000
    O14      O        0.34790    0.70740    0.26600    1.000
    C91      C        0.23900    0.69830    0.21470    1.000
    C92      C        0.11160    0.66440    0.26130    1.000
    H85      H        0.02840    0.68250    0.22840    1.000
    H86      H        0.10650    0.67980    0.32910    1.000
    C93      C        0.11750    0.57830    0.25530    1.000
    C94      C        0.11770    0.54320    0.16660    1.000
    H87      H        0.11620    0.57180    0.10970    1.000
    C95      C        0.12010    0.53500    0.33920    1.000
    H88      H        0.12350    0.55850    0.39980    1.000
    N13      N        0.42930    0.87320    0.15560    1.000
    C96      C        0.20240    0.89040    0.91310    1.000
    H89      H        0.26250    0.84950    0.91920    1.000
    C97      C        0.50840    0.93150    0.12060    1.000
    H90      H        0.59780    0.91760    0.10080    1.000
    C98      C        0.47980    0.00470    0.10980    1.000
    H91      H        0.54190    0.03940    0.08300    1.000
    C99      C        0.35180    0.02300    0.14190    1.000
    C100     C        0.25980    0.96740    0.17700    1.000
    H92      H        0.17020    0.98030    0.19710    1.000
    C101     C        0.17740    0.02300    0.92380    1.000
    C102     C        0.25860    0.96080    0.92940    1.000
    H93      H        0.35300    0.96560    0.94430    1.000
    C103     C        0.30360    0.89530    0.18100    1.000
    H94      H        0.24110    0.85900    0.20320    1.000
    N14      N        0.07350    0.87550    0.89000    1.000
    C104     C        0.22770    0.11250    0.05200    1.000
    H95      H        0.17680    0.15940    0.06070    1.000
    H96      H        0.15880    0.07260    0.05690    1.000
    C105     C        0.31030    0.10540    0.13590    1.000
    H97      H        0.25770    0.12000    0.19340    1.000
    H98      H        0.39250    0.13720    0.13120    1.000
    O15      O        0.73830    0.21460    0.62600    1.000
    O16      O        0.84790    0.20740    0.76600    1.000
    C106     C        0.73900    0.19830    0.71470    1.000
    C107     C        0.61160    0.16440    0.76130    1.000
    H99      H        0.52840    0.18250    0.72840    1.000
    H100     H        0.60650    0.17980    0.82910    1.000
    C108     C        0.61750    0.07830    0.75530    1.000
    C109     C        0.61770    0.04320    0.66660    1.000
    H101     H        0.61620    0.07180    0.60970    1.000
    C110     C        0.62010    0.03500    0.83920    1.000
    H102     H        0.62350    0.05850    0.89980    1.000
    N15      N        0.92930    0.37320    0.65560    1.000
    C111     C        0.70240    0.39040    0.41310    1.000
    H103     H        0.76250    0.34950    0.41920    1.000
    C112     C        0.00840    0.43150    0.62060    1.000
    H104     H        0.09780    0.41760    0.60080    1.000
    C113     C        0.97980    0.50470    0.60980    1.000
    H105     H        0.04190    0.53940    0.58300    1.000
    C114     C        0.85180    0.52300    0.64190    1.000
    C115     C        0.75980    0.46740    0.67700    1.000
    H106     H        0.67020    0.48030    0.69710    1.000
    C116     C        0.67740    0.52300    0.42380    1.000
    C117     C        0.75860    0.46080    0.42940    1.000
    H107     H        0.85300    0.46560    0.44430    1.000
    C118     C        0.80360    0.39530    0.68100    1.000
    H108     H        0.74110    0.35900    0.70320    1.000
    N16      N        0.57350    0.37550    0.39000    1.000
    C119     C        0.72770    0.61250    0.55200    1.000
    H109     H        0.67680    0.65940    0.56070    1.000
    H110     H        0.65880    0.57260    0.55690    1.000
    C120     C        0.81030    0.60540    0.63590    1.000
    H111     H        0.75770    0.62000    0.69340    1.000
    H112     H        0.89250    0.63720    0.63120    1.000
    Cd1      Cd       0.00000    0.75000    0.85525    1.000
    Cd2      Cd       0.50000    0.25000    0.35525    1.000
    Cd3      Cd       0.00000    0.25000    0.64475    1.000
    Cd4      Cd       0.50000    0.75000    0.14475    1.000
