# CIF file generated by openbabel 3.1.0, see https://openbabel.org
data_I
_chemical_name_common 'image0'
_cell_length_a 12.8328
_cell_length_b 16.1439
_cell_length_c 16.2738
_cell_angle_alpha 84.645
_cell_angle_beta 79.837
_cell_angle_gamma 69.372
_space_group_name_H-M_alt 'P 1'
_space_group_name_Hall 'P 1'
loop_
    _symmetry_equiv_pos_as_xyz
    x,y,z
loop_
    _atom_site_label
    _atom_site_type_symbol
    _atom_site_fract_x
    _atom_site_fract_y
    _atom_site_fract_z
    _atom_site_occupancy
    Ni1      Ni       0.43663    0.28215    0.95583    1.000
    Ni2      Ni       0.50235    0.73982    0.44236    1.000
    Ni3      Ni       0.50530    0.76551    0.24832    1.000
    O1       O        0.58210    0.82970    0.41030    1.000
    O2       O        0.59130    0.84216    0.27052    1.000
    O3       O        0.70660    0.07160    0.53620    1.000
    O4       O        0.59230    0.17750    0.46301    1.000
    O5       O        0.42240    0.68497    0.22639    1.000
    O6       O        0.48990    0.63080    0.09735    1.000
    O7       O        0.45360    0.31135    0.07724    1.000
    O8       O        0.30680    0.39190    0.01977    1.000
    O9       O        0.36190    0.19153    0.00760    1.000
    O10      O        0.22250    0.22710    0.93200    1.000
    O11      O        0.41500    0.87165    0.18195    1.000
    O12      O        0.41570    0.81917    0.06015    1.000
    O13      O        0.58960    0.66979    0.33379    1.000
    O14      O        0.67840    0.56323    0.24337    1.000
    O15      O        0.72690    0.29160    0.57965    1.000
    O16      O        0.57420    0.35012    0.51682    1.000
    O17      O        0.39070    0.80092    0.35697    1.000
    H1       H        0.33090    0.77630    0.36130    1.000
    H2       H        0.35850    0.86460    0.36250    1.000
    O18      O        0.36840    0.29084    0.84911    1.000
    H3       H        0.32960    0.35250    0.83490    1.000
    H4       H        0.31390    0.26050    0.85820    1.000
    C1       C        0.61000    0.86020    0.33860    1.000
    C2       C        0.67020    0.92560    0.33430    1.000
    C3       C        0.74960    0.92960    0.26720    1.000
    H5       H        0.76580    0.89230    0.22300    1.000
    C4       C        0.80620    0.98920    0.26490    1.000
    H6       H        0.86150    0.98940    0.21960    1.000
    C5       C        0.78340    0.04810    0.32760    1.000
    C6       C        0.70120    0.04430    0.39690    1.000
    C7       C        0.64740    0.98330    0.39930    1.000
    H7       H        0.59440    0.98070    0.44550    1.000
    C8       C        0.66530    0.10420    0.46960    1.000
    C9       C        0.80590    0.19600    0.34040    1.000
    H8       H        0.73030    0.22040    0.36330    1.000
    C10      C        0.85040    0.10780    0.32120    1.000
    C11      C        0.96370    0.07520    0.28970    1.000
    H9       H        0.99720    0.01550    0.27770    1.000
    C12      C        0.02870    0.12910    0.27550    1.000
    H10      H        0.10490    0.10450    0.25420    1.000
    C13      C        0.98400    0.21850    0.29200    1.000
    C14      C        0.87280    0.24860    0.32620    1.000
    H11      H        0.84010    0.30760    0.34070    1.000
    C15      C        0.02650    0.34990    0.31120    1.000
    H12      H        0.96220    0.36710    0.35120    1.000
    C16      C        0.09180    0.40350    0.29160    1.000
    H13      H        0.06720    0.45660    0.31910    1.000
    C17      C        0.23060    0.29800    0.20970    1.000
    H14      H        0.30330    0.27690    0.18020    1.000
    C18      C        0.16720    0.24140    0.22600    1.000
    H15      H        0.19600    0.18390    0.20690    1.000
    C19      C        0.05460    0.27580    0.27390    1.000
    C20      C        0.18740    0.38560    0.23660    1.000
    C21      C        0.25370    0.44720    0.21800    1.000
    C22      C        0.23840    0.51180    0.27480    1.000
    H16      H        0.18710    0.51550    0.32370    1.000
    C23      C        0.29660    0.57000    0.26090    1.000
    H17      H        0.28510    0.61150    0.30070    1.000
    C24      C        0.37230    0.56750    0.18840    1.000
    C25      C        0.39070    0.50320    0.13210    1.000
    H18      H        0.44280    0.49980    0.08380    1.000
    C26      C        0.33340    0.44330    0.14560    1.000
    C27      C        0.43400    0.63260    0.16950    1.000
    C28      C        0.36510    0.37650    0.07830    1.000
    C29      C        0.27670    0.18190    0.98650    1.000
    C30      C        0.24140    0.10710    0.02840    1.000
    C31      C        0.13070    0.11270    0.03770    1.000
    H19      H        0.07770    0.16310    0.01810    1.000
    C32      C        0.09710    0.04350    0.07620    1.000
    H20      H        0.02140    0.04940    0.08350    1.000
    C33      C        0.17420    0.96580    0.10410    1.000
    C34      C        0.28850    0.95960    0.09330    1.000
    C35      C        0.31900    0.03070    0.05640    1.000
    H21      H        0.39400    0.02670    0.05050    1.000
    C36      C        0.38030    0.87560    0.11390    1.000
    C37      C        0.13210    0.89570    0.14540    1.000
    C38      C        0.16240    0.85390    0.22020    1.000
    H22      H        0.21640    0.86640    0.24320    1.000
    C39      C        0.11480    0.79410    0.26170    1.000
    H23      H        0.13660    0.76760    0.31210    1.000
    C40      C        0.03470    0.77300    0.22890    1.000
    C41      C        0.00670    0.81210    0.15170    1.000
    H24      H        0.95620    0.79700    0.12690    1.000
    C42      C        0.05370    0.87270    0.11210    1.000
    H25      H        0.03230    0.89920    0.06160    1.000
    C43      C        0.97930    0.71220    0.27320    1.000
    C44      C        0.95000    0.71150    0.35940    1.000
    H26      H        0.96720    0.74940    0.39000    1.000
    C45      C        0.89560    0.65550    0.40120    1.000
    H27      H        0.87700    0.65670    0.45910    1.000
    C46      C        0.86880    0.59830    0.35810    1.000
    C47      C        0.89680    0.59760    0.27150    1.000
    H28      H        0.87960    0.55930    0.24120    1.000
    C48      C        0.95080    0.65450    0.23060    1.000
    H29      H        0.96830    0.65400    0.17260    1.000
    C49      C        0.81290    0.53650    0.40320    1.000
    C50      C        0.86040    0.48010    0.46640    1.000
    H30      H        0.92580    0.48280    0.48130    1.000
    C51      C        0.81410    0.42000    0.50800    1.000
    H31      H        0.84910    0.38240    0.54950    1.000
    C52      C        0.71590    0.41520    0.48850    1.000
    C53      C        0.66480    0.47320    0.42660    1.000
    H32      H        0.59750    0.47200    0.41380    1.000
    C54      C        0.71270    0.53250    0.38380    1.000
    C55      C        0.65590    0.59210    0.31600    1.000
    C56      C        0.66860    0.34730    0.53190    1.000
    C57      C        0.08730    0.30920    0.33560    1.000
    H33      H        0.06370    0.29670    0.39120    1.000
    C58      C        0.15470    0.36130    0.31670    1.000
    H34      H        0.17840    0.38030    0.36000    1.000
    C59      C        0.13880    0.36380    0.17500    1.000
    H35      H        0.14830    0.38730    0.12100    1.000
    C60      C        0.07730    0.30840    0.19340    1.000
    H36      H        0.04990    0.29210    0.15060    1.000
    Ni4      Ni       0.56337    0.71785    0.04417    1.000
    Ni5      Ni       0.49765    0.26018    0.55764    1.000
    Ni6      Ni       0.49470    0.23449    0.75168    1.000
    O19      O        0.41790    0.17030    0.58970    1.000
    O20      O        0.40870    0.15784    0.72948    1.000
    O21      O        0.29340    0.92840    0.46380    1.000
    O22      O        0.40770    0.82250    0.53699    1.000
    O23      O        0.57760    0.31503    0.77361    1.000
    O24      O        0.51010    0.36920    0.90265    1.000
    O25      O        0.54640    0.68865    0.92276    1.000
    O26      O        0.69320    0.60810    0.98023    1.000
    O27      O        0.63810    0.80847    0.99240    1.000
    O28      O        0.77750    0.77290    0.06800    1.000
    O29      O        0.58500    0.12835    0.81805    1.000
    O30      O        0.58430    0.18083    0.93985    1.000
    O31      O        0.41040    0.33021    0.66621    1.000
    O32      O        0.32160    0.43677    0.75663    1.000
    O33      O        0.27310    0.70840    0.42035    1.000
    O34      O        0.42580    0.64988    0.48318    1.000
    O35      O        0.60930    0.19908    0.64303    1.000
    H37      H        0.66910    0.22370    0.63870    1.000
    H38      H        0.64150    0.13540    0.63750    1.000
    O36      O        0.63160    0.70916    0.15089    1.000
    H39      H        0.67040    0.64750    0.16510    1.000
    H40      H        0.68610    0.73950    0.14180    1.000
    C61      C        0.39000    0.13980    0.66140    1.000
    C62      C        0.32980    0.07440    0.66570    1.000
    C63      C        0.25040    0.07040    0.73280    1.000
    H41      H        0.23420    0.10770    0.77700    1.000
    C64      C        0.19380    0.01080    0.73510    1.000
    H42      H        0.13850    0.01060    0.78040    1.000
    C65      C        0.21660    0.95190    0.67240    1.000
    C66      C        0.29880    0.95570    0.60310    1.000
    C67      C        0.35260    0.01670    0.60070    1.000
    H43      H        0.40560    0.01930    0.55450    1.000
    C68      C        0.33470    0.89580    0.53040    1.000
    C69      C        0.19410    0.80400    0.65960    1.000
    H44      H        0.26970    0.77960    0.63670    1.000
    C70      C        0.14960    0.89220    0.67880    1.000
    C71      C        0.03630    0.92480    0.71030    1.000
    H45      H        0.00280    0.98450    0.72230    1.000
    C72      C        0.97130    0.87090    0.72450    1.000
    H46      H        0.89510    0.89550    0.74580    1.000
    C73      C        0.01600    0.78150    0.70800    1.000
    C74      C        0.12720    0.75140    0.67380    1.000
    H47      H        0.15990    0.69240    0.65930    1.000
    C75      C        0.97350    0.65010    0.68880    1.000
    H48      H        0.03780    0.63290    0.64880    1.000
    C76      C        0.90820    0.59650    0.70840    1.000
    H49      H        0.93280    0.54340    0.68090    1.000
    C77      C        0.76940    0.70200    0.79030    1.000
    H50      H        0.69670    0.72310    0.81980    1.000
    C78      C        0.83280    0.75860    0.77400    1.000
    H51      H        0.80400    0.81610    0.79310    1.000
    C79      C        0.94540    0.72420    0.72610    1.000
    C80      C        0.81260    0.61440    0.76340    1.000
    C81      C        0.74630    0.55280    0.78200    1.000
    C82      C        0.76160    0.48820    0.72520    1.000
    H52      H        0.81290    0.48450    0.67630    1.000
    C83      C        0.70340    0.43000    0.73910    1.000
    H53      H        0.71490    0.38850    0.69930    1.000
    C84      C        0.62770    0.43250    0.81160    1.000
    C85      C        0.60930    0.49680    0.86790    1.000
    H54      H        0.55720    0.50020    0.91620    1.000
    C86      C        0.66660    0.55670    0.85440    1.000
    C87      C        0.56600    0.36740    0.83050    1.000
    C88      C        0.63490    0.62350    0.92170    1.000
    C89      C        0.72330    0.81810    0.01350    1.000
    C90      C        0.75860    0.89290    0.97160    1.000
    C91      C        0.86930    0.88730    0.96230    1.000
    H55      H        0.92230    0.83690    0.98190    1.000
    C92      C        0.90290    0.95650    0.92380    1.000
    H56      H        0.97860    0.95060    0.91650    1.000
    C93      C        0.82580    0.03420    0.89590    1.000
    C94      C        0.71150    0.04040    0.90670    1.000
    C95      C        0.68100    0.96930    0.94360    1.000
    H57      H        0.60600    0.97330    0.94950    1.000
    C96      C        0.61970    0.12440    0.88610    1.000
    C97      C        0.86790    0.10430    0.85460    1.000
    C98      C        0.83760    0.14610    0.77980    1.000
    H58      H        0.78360    0.13360    0.75680    1.000
    C99      C        0.88520    0.20590    0.73830    1.000
    H59      H        0.86340    0.23240    0.68790    1.000
    C100     C        0.96530    0.22700    0.77110    1.000
    C101     C        0.99330    0.18790    0.84830    1.000
    H60      H        0.04380    0.20300    0.87310    1.000
    C102     C        0.94630    0.12730    0.88790    1.000
    H61      H        0.96770    0.10080    0.93840    1.000
    C103     C        0.02070    0.28780    0.72680    1.000
    C104     C        0.05000    0.28850    0.64060    1.000
    H62      H        0.03280    0.25060    0.61000    1.000
    C105     C        0.10440    0.34450    0.59880    1.000
    H63      H        0.12300    0.34330    0.54090    1.000
    C106     C        0.13120    0.40170    0.64190    1.000
    C107     C        0.10320    0.40240    0.72850    1.000
    H64      H        0.12040    0.44070    0.75880    1.000
    C108     C        0.04920    0.34550    0.76940    1.000
    H65      H        0.03170    0.34600    0.82740    1.000
    C109     C        0.18710    0.46350    0.59680    1.000
    C110     C        0.13960    0.51990    0.53360    1.000
    H66      H        0.07420    0.51720    0.51870    1.000
    C111     C        0.18590    0.58000    0.49200    1.000
    H67      H        0.15090    0.61760    0.45050    1.000
    C112     C        0.28410    0.58480    0.51150    1.000
    C113     C        0.33520    0.52680    0.57340    1.000
    H68      H        0.40250    0.52800    0.58620    1.000
    C114     C        0.28730    0.46750    0.61620    1.000
    C115     C        0.34410    0.40790    0.68400    1.000
    C116     C        0.33140    0.65270    0.46810    1.000
    C117     C        0.91270    0.69080    0.66440    1.000
    H69      H        0.93630    0.70330    0.60880    1.000
    C118     C        0.84530    0.63870    0.68330    1.000
    H70      H        0.82160    0.61970    0.64000    1.000
    C119     C        0.86120    0.63620    0.82500    1.000
    H71      H        0.85170    0.61270    0.87900    1.000
    C120     C        0.92270    0.69160    0.80660    1.000
    H72      H        0.95010    0.70790    0.84940    1.000
