# CIF file generated by openbabel 3.1.0, see https://openbabel.org
data_I
_chemical_name_common 'image0'
_cell_length_a 15.498
_cell_length_b 16.4
_cell_length_c 12.66
_cell_angle_alpha 90
_cell_angle_beta 93.36
_cell_angle_gamma 90
_space_group_name_H-M_alt 'P 1'
_space_group_name_Hall 'P 1'
loop_
    _symmetry_equiv_pos_as_xyz
    x,y,z
loop_
    _atom_site_label
    _atom_site_type_symbol
    _atom_site_fract_x
    _atom_site_fract_y
    _atom_site_fract_z
    _atom_site_occupancy
    Sm1      Sm       0.12257    0.19019    0.91378    1.000
    S1       S        0.10822    0.21911    0.66777    1.000
    S2       S        0.18208    0.35054    0.07458    1.000
    O1       O        0.05380    0.06290    0.90150    1.000
    O2       O        0.10350    0.14160    0.72940    1.000
    O3       O        0.08610    0.14270    0.07900    1.000
    O4       O        0.02520    0.23430    0.60970    1.000
    O5       O        0.12460    0.32560    0.98600    1.000
    O6       O        0.12360    0.28230    0.74990    1.000
    O7       O        0.07510    0.04020    0.18600    1.000
    O8       O        0.17740    0.21720    0.59810    1.000
    O9       O        0.25340    0.40060    0.04290    1.000
    C1       C        0.06360    0.07270    0.09690    1.000
    O10      O        0.13130    0.38910    0.15280    1.000
    O11      O        0.22510    0.27550    0.11790    1.000
    C2       C        0.03680    0.02310    0.99600    1.000
    H1       H        0.08130    0.98060    0.99850    1.000
    Sm2      Sm       0.62257    0.69019    0.91378    1.000
    S3       S        0.60822    0.71911    0.66777    1.000
    S4       S        0.68208    0.85054    0.07458    1.000
    O12      O        0.55380    0.56290    0.90150    1.000
    O13      O        0.60350    0.64160    0.72940    1.000
    O14      O        0.58610    0.64270    0.07900    1.000
    O15      O        0.52520    0.73430    0.60970    1.000
    O16      O        0.62460    0.82560    0.98600    1.000
    O17      O        0.62360    0.78230    0.74990    1.000
    O18      O        0.57510    0.54020    0.18600    1.000
    O19      O        0.67740    0.71720    0.59810    1.000
    O20      O        0.75340    0.90060    0.04290    1.000
    C3       C        0.56360    0.57270    0.09690    1.000
    O21      O        0.63130    0.88910    0.15280    1.000
    O22      O        0.72510    0.77550    0.11790    1.000
    C4       C        0.53680    0.52310    0.99600    1.000
    H2       H        0.58130    0.48060    0.99850    1.000
    Sm3      Sm       0.87743    0.19019    0.58622    1.000
    S5       S        0.89178    0.21911    0.83223    1.000
    S6       S        0.81792    0.35054    0.42542    1.000
    O23      O        0.94620    0.06290    0.59850    1.000
    O24      O        0.89650    0.14160    0.77060    1.000
    O25      O        0.91390    0.14270    0.42100    1.000
    O26      O        0.97480    0.23430    0.89030    1.000
    O27      O        0.87540    0.32560    0.51400    1.000
    O28      O        0.87640    0.28230    0.75010    1.000
    O29      O        0.92490    0.04020    0.31400    1.000
    O30      O        0.82260    0.21720    0.90190    1.000
    O31      O        0.74660    0.40060    0.45710    1.000
    C5       C        0.93640    0.07270    0.40310    1.000
    O32      O        0.86870    0.38910    0.34720    1.000
    O33      O        0.77490    0.27550    0.38210    1.000
    C6       C        0.96320    0.02310    0.50400    1.000
    H3       H        0.91870    0.98060    0.50150    1.000
    Sm4      Sm       0.37743    0.69019    0.58622    1.000
    S7       S        0.39178    0.71911    0.83223    1.000
    S8       S        0.31792    0.85054    0.42542    1.000
    O34      O        0.44620    0.56290    0.59850    1.000
    O35      O        0.39650    0.64160    0.77060    1.000
    O36      O        0.41390    0.64270    0.42100    1.000
    O37      O        0.47480    0.73430    0.89030    1.000
    O38      O        0.37540    0.82560    0.51400    1.000
    O39      O        0.37640    0.78230    0.75010    1.000
    O40      O        0.42490    0.54020    0.31400    1.000
    O41      O        0.32260    0.71720    0.90190    1.000
    O42      O        0.24660    0.90060    0.45710    1.000
    C7       C        0.43640    0.57270    0.40310    1.000
    O43      O        0.36870    0.88910    0.34720    1.000
    O44      O        0.27490    0.77550    0.38210    1.000
    C8       C        0.46320    0.52310    0.50400    1.000
    H4       H        0.41870    0.48060    0.50150    1.000
    Sm5      Sm       0.87743    0.80981    0.08622    1.000
    S9       S        0.89178    0.78089    0.33223    1.000
    S10      S        0.81792    0.64946    0.92542    1.000
    O45      O        0.94620    0.93710    0.09850    1.000
    O46      O        0.89650    0.85840    0.27060    1.000
    O47      O        0.91390    0.85730    0.92100    1.000
    O48      O        0.97480    0.76570    0.39030    1.000
    O49      O        0.87540    0.67440    0.01400    1.000
    O50      O        0.87640    0.71770    0.25010    1.000
    O51      O        0.92490    0.95980    0.81400    1.000
    O52      O        0.82260    0.78280    0.40190    1.000
    O53      O        0.74660    0.59940    0.95710    1.000
    C9       C        0.93640    0.92730    0.90310    1.000
    O54      O        0.86870    0.61090    0.84720    1.000
    O55      O        0.77490    0.72450    0.88210    1.000
    C10      C        0.96320    0.97690    0.00400    1.000
    H5       H        0.91870    0.01940    0.00150    1.000
    Sm6      Sm       0.37743    0.30981    0.08622    1.000
    S11      S        0.39178    0.28089    0.33223    1.000
    S12      S        0.31792    0.14946    0.92542    1.000
    O56      O        0.44620    0.43710    0.09850    1.000
    O57      O        0.39650    0.35840    0.27060    1.000
    O58      O        0.41390    0.35730    0.92100    1.000
    O59      O        0.47480    0.26570    0.39030    1.000
    O60      O        0.37540    0.17440    0.01400    1.000
    O61      O        0.37640    0.21770    0.25010    1.000
    O62      O        0.42490    0.45980    0.81400    1.000
    O63      O        0.32260    0.28280    0.40190    1.000
    O64      O        0.24660    0.09940    0.95710    1.000
    C11      C        0.43640    0.42730    0.90310    1.000
    O65      O        0.36870    0.11090    0.84720    1.000
    O66      O        0.27490    0.22450    0.88210    1.000
    C12      C        0.46320    0.47690    0.00400    1.000
    H6       H        0.41870    0.51940    0.00150    1.000
    Sm7      Sm       0.12257    0.80981    0.41378    1.000
    S13      S        0.10822    0.78089    0.16777    1.000
    S14      S        0.18208    0.64946    0.57458    1.000
    O67      O        0.05380    0.93710    0.40150    1.000
    O68      O        0.10350    0.85840    0.22940    1.000
    O69      O        0.08610    0.85730    0.57900    1.000
    O70      O        0.02520    0.76570    0.10970    1.000
    O71      O        0.12460    0.67440    0.48600    1.000
    O72      O        0.12360    0.71770    0.24990    1.000
    O73      O        0.07510    0.95980    0.68600    1.000
    O74      O        0.17740    0.78280    0.09810    1.000
    O75      O        0.25340    0.59940    0.54290    1.000
    C13      C        0.06360    0.92730    0.59690    1.000
    O76      O        0.13130    0.61090    0.65280    1.000
    O77      O        0.22510    0.72450    0.61790    1.000
    C14      C        0.03680    0.97690    0.49600    1.000
    H7       H        0.08130    0.01940    0.49850    1.000
    Sm8      Sm       0.62257    0.30981    0.41378    1.000
    S15      S        0.60822    0.28089    0.16777    1.000
    S16      S        0.68208    0.14946    0.57458    1.000
    O78      O        0.55380    0.43710    0.40150    1.000
    O79      O        0.60350    0.35840    0.22940    1.000
    O80      O        0.58610    0.35730    0.57900    1.000
    O81      O        0.52520    0.26570    0.10970    1.000
    O82      O        0.62460    0.17440    0.48600    1.000
    O83      O        0.62360    0.21770    0.24990    1.000
    O84      O        0.57510    0.45980    0.68600    1.000
    O85      O        0.67740    0.28280    0.09810    1.000
    O86      O        0.75340    0.09940    0.54290    1.000
    C15      C        0.56360    0.42730    0.59690    1.000
    O87      O        0.63130    0.11090    0.65280    1.000
    O88      O        0.72510    0.22450    0.61790    1.000
    C16      C        0.53680    0.47690    0.49600    1.000
    H8       H        0.58130    0.51940    0.49850    1.000
    Fe1      Fe       0.00000    0.05061    0.75000    1.000
    Fe2      Fe       0.50000    0.55061    0.75000    1.000
    Fe3      Fe       0.00000    0.94939    0.25000    1.000
    Fe4      Fe       0.50000    0.44939    0.25000    1.000
