# CIF file generated by openbabel 3.1.0, see https://openbabel.org
data_I
_chemical_name_common 'image0'
_cell_length_a 11.2574
_cell_length_b 12.0034
_cell_length_c 16.143
_cell_angle_alpha 90
_cell_angle_beta 129.603
_cell_angle_gamma 90
_space_group_name_H-M_alt 'P 1'
_space_group_name_Hall 'P 1'
loop_
    _symmetry_equiv_pos_as_xyz
    x,y,z
loop_
    _atom_site_label
    _atom_site_type_symbol
    _atom_site_fract_x
    _atom_site_fract_y
    _atom_site_fract_z
    _atom_site_occupancy
    Zn1      Zn       0.17802    0.02579    0.01875    1.000
    O1       O        0.07007    0.92702    0.88853    1.000
    O2       O        0.39360    0.01943    0.05616    1.000
    O3       O        0.36059    0.14677    0.13466    1.000
    O4       O        0.21474    0.92135    0.12666    1.000
    O5       O        0.02462    0.14410    0.96402    1.000
    S1       S        0.02264    0.96556    0.78470    1.000
    C1       C        0.14200    0.89041    0.76816    1.000
    O6       O        0.05760    0.08097    0.78813    1.000
    O7       O        0.86668    0.93370    0.69765    1.000
    C2       C        0.29550    0.92231    0.82860    1.000
    C3       C        0.08380    0.80260    0.69689    1.000
    C4       C        0.39120    0.86603    0.81660    1.000
    H1       H        0.33380    0.98120    0.87690    1.000
    C5       C        0.18000    0.74518    0.68588    1.000
    H2       H        0.98090    0.78200    0.65650    1.000
    C6       C        0.33350    0.77748    0.74547    1.000
    C7       C        0.55560    0.90125    0.87888    1.000
    C8       C        0.11810    0.64849    0.61027    1.000
    H3       H        0.39750    0.73940    0.73740    1.000
    Zn2      Zn       0.82198    0.52579    0.48125    1.000
    O8       O        0.92993    0.42702    0.61147    1.000
    O9       O        0.60640    0.51943    0.44384    1.000
    O10      O        0.63941    0.64677    0.36534    1.000
    O11      O        0.78526    0.42135    0.37334    1.000
    O12      O        0.97538    0.64410    0.53598    1.000
    S2       S        0.97736    0.46556    0.71530    1.000
    C9       C        0.85800    0.39041    0.73184    1.000
    O13      O        0.94240    0.58097    0.71187    1.000
    O14      O        0.13332    0.43370    0.80235    1.000
    C10      C        0.70450    0.42231    0.67140    1.000
    C11      C        0.91620    0.30260    0.80311    1.000
    C12      C        0.60880    0.36603    0.68340    1.000
    H4       H        0.66620    0.48120    0.62310    1.000
    C13      C        0.82000    0.24518    0.81412    1.000
    H5       H        0.01910    0.28200    0.84350    1.000
    C14      C        0.66650    0.27748    0.75453    1.000
    C15      C        0.44440    0.40125    0.62112    1.000
    C16      C        0.88190    0.14849    0.88973    1.000
    H6       H        0.60250    0.23940    0.76260    1.000
    Zn3      Zn       0.82198    0.97421    0.98125    1.000
    O15      O        0.92993    0.07298    0.11147    1.000
    O16      O        0.60640    0.98057    0.94384    1.000
    O17      O        0.63941    0.85323    0.86534    1.000
    O18      O        0.78526    0.07865    0.87334    1.000
    O19      O        0.97538    0.85590    0.03598    1.000
    S3       S        0.97736    0.03444    0.21530    1.000
    C17      C        0.85800    0.10959    0.23184    1.000
    O20      O        0.94240    0.91903    0.21187    1.000
    O21      O        0.13332    0.06630    0.30235    1.000
    C18      C        0.70450    0.07769    0.17140    1.000
    C19      C        0.91620    0.19740    0.30311    1.000
    C20      C        0.60880    0.13397    0.18340    1.000
    H7       H        0.66620    0.01880    0.12310    1.000
    C21      C        0.82000    0.25482    0.31412    1.000
    H8       H        0.01910    0.21800    0.34350    1.000
    C22      C        0.66650    0.22252    0.25453    1.000
    C23      C        0.44440    0.09875    0.12112    1.000
    C24      C        0.88190    0.35151    0.38973    1.000
    H9       H        0.60250    0.26060    0.26260    1.000
    Zn4      Zn       0.17802    0.47421    0.51875    1.000
    O22      O        0.07007    0.57298    0.38853    1.000
    O23      O        0.39360    0.48057    0.55616    1.000
    O24      O        0.36059    0.35323    0.63466    1.000
    O25      O        0.21474    0.57865    0.62666    1.000
    O26      O        0.02462    0.35590    0.46402    1.000
    S4       S        0.02264    0.53444    0.28470    1.000
    C25      C        0.14200    0.60959    0.26816    1.000
    O27      O        0.05760    0.41903    0.28813    1.000
    O28      O        0.86668    0.56630    0.19765    1.000
    C26      C        0.29550    0.57769    0.32860    1.000
    C27      C        0.08380    0.69740    0.19689    1.000
    C28      C        0.39120    0.63397    0.31660    1.000
    H10      H        0.33380    0.51880    0.37690    1.000
    C29      C        0.18000    0.75482    0.18588    1.000
    H11      H        0.98090    0.71800    0.15650    1.000
    C30      C        0.33350    0.72252    0.24547    1.000
    C31      C        0.55560    0.59875    0.37888    1.000
    C32      C        0.11810    0.85151    0.11027    1.000
    H12      H        0.39750    0.76060    0.23740    1.000
