# CIF file generated by openbabel 3.1.0, see https://openbabel.org
data_I
_chemical_name_common 'image0'
_cell_length_a 6.6243
_cell_length_b 8.6345
_cell_length_c 9.7545
_cell_angle_alpha 90
_cell_angle_beta 102.599
_cell_angle_gamma 90
_space_group_name_H-M_alt 'P 1'
_space_group_name_Hall 'P 1'
loop_
    _symmetry_equiv_pos_as_xyz
    x,y,z
loop_
    _atom_site_label
    _atom_site_type_symbol
    _atom_site_fract_x
    _atom_site_fract_y
    _atom_site_fract_z
    _atom_site_occupancy
    Er1      Er       0.89118    0.76915    0.73055    1.000
    O1       O        0.92550    0.54330    0.87140    1.000
    O2       O        0.00180    0.38130    0.05300    1.000
    O3       O        0.87700    0.58850    0.56140    1.000
    O4       O        0.94280    0.43460    0.39750    1.000
    O5       O        0.57250    0.69370    0.76640    1.000
    O6       O        0.24530    0.70410    0.78520    1.000
    O7       O        0.62010    0.87170    0.51950    1.000
    O8       O        0.70360    0.01500    0.70890    1.000
    C1       C        0.02720    0.50160    0.99110    1.000
    H1       H        0.13070    0.56810    0.03660    1.000
    C2       C        0.95440    0.47150    0.52250    1.000
    H2       H        0.02710    0.40580    0.59150    1.000
    C3       C        0.38840    0.71930    0.73080    1.000
    H3       H        0.35040    0.76010    0.64060    1.000
    C4       C        0.60330    0.99320    0.58510    1.000
    H4       H        0.51380    0.07020    0.54120    1.000
    Er2      Er       0.10882    0.26915    0.26945    1.000
    O9       O        0.07450    0.04330    0.12860    1.000
    O10      O        0.99820    0.88130    0.94700    1.000
    O11      O        0.12300    0.08850    0.43860    1.000
    O12      O        0.05720    0.93460    0.60250    1.000
    O13      O        0.42750    0.19370    0.23360    1.000
    O14      O        0.75470    0.20410    0.21480    1.000
    O15      O        0.37990    0.37170    0.48050    1.000
    O16      O        0.29640    0.51500    0.29110    1.000
    C5       C        0.97280    0.00160    0.00890    1.000
    H5       H        0.86930    0.06810    0.96340    1.000
    C6       C        0.04560    0.97150    0.47750    1.000
    H6       H        0.97290    0.90580    0.40850    1.000
    C7       C        0.61160    0.21930    0.26920    1.000
    H7       H        0.64960    0.26010    0.35940    1.000
    C8       C        0.39670    0.49320    0.41490    1.000
    H8       H        0.48620    0.57020    0.45880    1.000
