# CIF file generated by openbabel 3.1.0, see https://openbabel.org
data_I
_chemical_name_common 'image0'
_cell_length_a 35.61
_cell_length_b 17.813
_cell_length_c 32.235
_cell_angle_alpha 90
_cell_angle_beta 112.749
_cell_angle_gamma 90
_space_group_name_H-M_alt 'P 1'
_space_group_name_Hall 'P 1'
loop_
    _symmetry_equiv_pos_as_xyz
    x,y,z
loop_
    _atom_site_label
    _atom_site_type_symbol
    _atom_site_fract_x
    _atom_site_fract_y
    _atom_site_fract_z
    _atom_site_occupancy
    C1       C        0.16160    0.37750    0.32230    1.000
    C2       C        0.15050    0.30880    0.33470    1.000
    C3       C        0.11970    0.30580    0.34930    1.000
    H1       H        0.11240    0.25900    0.35810    1.000
    C4       C        0.09870    0.36990    0.35160    1.000
    C5       C        0.10940    0.43620    0.33790    1.000
    H2       H        0.09470    0.48040    0.33860    1.000
    C6       C        0.14010    0.44100    0.32360    1.000
    C7       C        0.15360    0.51600    0.31250    1.000
    H3       H        0.14700    0.55490    0.33060    1.000
    H4       H        0.18360    0.51490    0.32220    1.000
    C8       C        0.13550    0.54000    0.26390    1.000
    C9       C        0.10700    0.59560    0.25090    1.000
    H5       H        0.09760    0.61680    0.27220    1.000
    C10      C        0.09210    0.62050    0.20890    1.000
    C11      C        0.10510    0.58960    0.17730    1.000
    H6       H        0.09490    0.60860    0.14750    1.000
    C12      C        0.13230    0.53230    0.18880    1.000
    C13      C        0.14830    0.50840    0.23280    1.000
    C14      C        0.14600    0.49790    0.15500    1.000
    H7       H        0.15090    0.44370    0.16180    1.000
    H8       H        0.12370    0.50230    0.12490    1.000
    C15      C        0.18320    0.53120    0.15280    1.000
    C16      C        0.17950    0.59320    0.12600    1.000
    H9       H        0.15350    0.61540    0.11060    1.000
    C17      C        0.21270    0.62270    0.12150    1.000
    C18      C        0.24990    0.58910    0.14210    1.000
    H10      H        0.27300    0.60800    0.13770    1.000
    C19      C        0.25350    0.52850    0.16900    1.000
    C20      C        0.22050    0.50140    0.17430    1.000
    C21      C        0.29510    0.49340    0.19250    1.000
    H11      H        0.31300    0.52960    0.21460    1.000
    H12      H        0.29240    0.44850    0.20930    1.000
    C22      C        0.31460    0.47080    0.16050    1.000
    C23      C        0.34590    0.50930    0.15940    1.000
    H13      H        0.35500    0.55230    0.17800    1.000
    C24      C        0.36580    0.48840    0.13180    1.000
    C25      C        0.35160    0.43020    0.10470    1.000
    H14      H        0.36440    0.41690    0.08470    1.000
    C26      C        0.31900    0.38820    0.10410    1.000
    C27      C        0.30140    0.40670    0.13330    1.000
    C28      C        0.30600    0.32280    0.07360    1.000
    H15      H        0.31110    0.27670    0.09210    1.000
    H16      H        0.32310    0.32030    0.05580    1.000
    C29      C        0.26210    0.32310    0.04180    1.000
    C30      C        0.25030    0.36330    0.00300    1.000
    H17      H        0.26940    0.39260    0.99630    1.000
    C31      C        0.21060    0.36080    0.97410    1.000
    C32      C        0.18390    0.31360    0.98230    1.000
    H18      H        0.15640    0.31090    0.96150    1.000
    C33      C        0.19660    0.27020    0.02040    1.000
    C34      C        0.23550    0.27900    0.05100    1.000
    C35      C        0.16730    0.21720    0.02590    1.000
    H19      H        0.18110    0.16860    0.03670    1.000
    H20      H        0.14510    0.20840    0.99630    1.000
    C36      C        0.14940    0.24400    0.05810    1.000
    C37      C        0.11570    0.28510    0.04400    1.000
    H21      H        0.10160    0.29390    0.01270    1.000
    C38      C        0.10130    0.31450    0.07350    1.000
    C39      C        0.12230    0.30280    0.11790    1.000
    H22      H        0.11270    0.32500    0.13880    1.000
    C40      C        0.15640    0.26060    0.13350    1.000
    C41      C        0.16940    0.22860    0.10320    1.000
    C42      C        0.18220    0.25570    0.18330    1.000
    H23      H        0.20760    0.22860    0.18720    1.000
    H24      H        0.18990    0.30730    0.19490    1.000
    C43      C        0.16330    0.21840    0.21090    1.000
    C44      C        0.13060    0.17000    0.19450    1.000
    H25      H        0.12010    0.15550    0.16380    1.000
    C45      C        0.11380    0.14400    0.22180    1.000
    C46      C        0.12680    0.16740    0.26590    1.000
    H26      H        0.11280    0.15140    0.28400    1.000
    C47      C        0.15920    0.21270    0.28320    1.000
    C48      C        0.17900    0.23730    0.25610    1.000
    C49      C        0.17290    0.23900    0.33100    1.000
    H27      H        0.16820    0.19880    0.34960    1.000
    H28      H        0.20250    0.24950    0.34290    1.000
    O1       O        0.19310    0.38300    0.31090    1.000
    O2       O        0.17640    0.45550    0.24340    1.000
    H29      H        0.18400    0.44520    0.27090    1.000
    O3       O        0.22610    0.44310    0.20280    1.000
    H30      H        0.20360    0.43060    0.20360    1.000
    O4       O        0.27170    0.36900    0.13800    1.000
    H31      H        0.26530    0.33260    0.12010    1.000
    O5       O        0.24910    0.24630    0.09100    1.000
    H32      H        0.23050    0.22000    0.09350    1.000
    O6       O        0.20170    0.18610    0.11720    1.000
    H33      H        0.20610    0.17010    0.09490    1.000
    O7       O        0.21240    0.27750    0.27150    1.000
    H34      H        0.21900    0.28570    0.29910    1.000
    S1       S        0.06147    0.36470    0.37288    1.000
    S2       S        0.05663    0.69300    0.19103    1.000
    S3       S        0.20852    0.70502    0.08971    1.000
    S4       S        0.40830    0.53790    0.13330    1.000
    S5       S        0.19109    0.41310    0.92470    1.000
    S6       S        0.05658    0.36490    0.05350    1.000
    S7       S        0.07324    0.08280    0.20141    1.000
    O8       O        0.03440    0.30930    0.34930    1.000
    O9       O        0.04150    0.43470    0.36430    1.000
    O10      O        0.08100    0.34810    0.41870    1.000
    O11      O        0.07730    0.75530    0.18050    1.000
    O12      O        0.04650    0.71370    0.22740    1.000
    O13      O        0.02280    0.66330    0.15590    1.000
    O14      O        0.23790    0.69880    0.06980    1.000
    O15      O        0.21710    0.76590    0.12010    1.000
    O16      O        0.16790    0.70510    0.05710    1.000
    O17      O        0.41340    0.51790    0.09320    1.000
    O18      O        0.39870    0.61450    0.13540    1.000
    O19      O        0.44240    0.51110    0.17190    1.000
    O20      O        0.15870    0.45750    0.92790    1.000
    O21      O        0.22300    0.45640    0.92410    1.000
    O22      O        0.17490    0.36090    0.88850    1.000
    O23      O        0.04810    0.38500    0.08870    1.000
    O24      O        0.06070    0.42010    0.02490    1.000
    O25      O        0.02670    0.31460    0.02280    1.000
    O26      O        0.03760    0.12400    0.18390    1.000
    O27      O        0.08090    0.03610    0.17080    1.000
    O28      O        0.07370    0.03920    0.23820    1.000
    Ba1      Ba       0.98690    0.63393    0.06691    1.000
    O29      O        0.53470    0.67580    0.30000    1.000
    Ba2      Ba       0.50311    0.55257    0.24032    1.000
    C50      C        0.66160    0.87750    0.32230    1.000
    C51      C        0.65050    0.80880    0.33470    1.000
    C52      C        0.61970    0.80580    0.34930    1.000
    H35      H        0.61240    0.75900    0.35810    1.000
    C53      C        0.59870    0.86990    0.35160    1.000
    C54      C        0.60940    0.93620    0.33790    1.000
    H36      H        0.59470    0.98040    0.33860    1.000
    C55      C        0.64010    0.94100    0.32360    1.000
    C56      C        0.65360    0.01600    0.31250    1.000
    H37      H        0.64700    0.05490    0.33060    1.000
    H38      H        0.68360    0.01490    0.32220    1.000
    C57      C        0.63550    0.04000    0.26390    1.000
    C58      C        0.60700    0.09560    0.25090    1.000
    H39      H        0.59760    0.11680    0.27220    1.000
    C59      C        0.59210    0.12050    0.20890    1.000
    C60      C        0.60510    0.08960    0.17730    1.000
    H40      H        0.59490    0.10860    0.14750    1.000
    C61      C        0.63230    0.03230    0.18880    1.000
    C62      C        0.64830    0.00840    0.23280    1.000
    C63      C        0.64600    0.99790    0.15500    1.000
    H41      H        0.65090    0.94370    0.16180    1.000
    H42      H        0.62370    0.00230    0.12490    1.000
    C64      C        0.68320    0.03120    0.15280    1.000
    C65      C        0.67950    0.09320    0.12600    1.000
    H43      H        0.65350    0.11540    0.11060    1.000
    C66      C        0.71270    0.12270    0.12150    1.000
    C67      C        0.74990    0.08910    0.14210    1.000
    H44      H        0.77300    0.10800    0.13770    1.000
    C68      C        0.75350    0.02850    0.16900    1.000
    C69      C        0.72050    0.00140    0.17430    1.000
    C70      C        0.79510    0.99340    0.19250    1.000
    H45      H        0.81300    0.02960    0.21460    1.000
    H46      H        0.79240    0.94850    0.20930    1.000
    C71      C        0.81460    0.97080    0.16050    1.000
    C72      C        0.84590    0.00930    0.15940    1.000
    H47      H        0.85500    0.05230    0.17800    1.000
    C73      C        0.86580    0.98840    0.13180    1.000
    C74      C        0.85160    0.93020    0.10470    1.000
    H48      H        0.86440    0.91690    0.08470    1.000
    C75      C        0.81900    0.88820    0.10410    1.000
    C76      C        0.80140    0.90670    0.13330    1.000
    C77      C        0.80600    0.82280    0.07360    1.000
    H49      H        0.81110    0.77670    0.09210    1.000
    H50      H        0.82310    0.82030    0.05580    1.000
    C78      C        0.76210    0.82310    0.04180    1.000
    C79      C        0.75030    0.86330    0.00300    1.000
    H51      H        0.76940    0.89260    0.99630    1.000
    C80      C        0.71060    0.86080    0.97410    1.000
    C81      C        0.68390    0.81360    0.98230    1.000
    H52      H        0.65640    0.81090    0.96150    1.000
    C82      C        0.69660    0.77020    0.02040    1.000
    C83      C        0.73550    0.77900    0.05100    1.000
    C84      C        0.66730    0.71720    0.02590    1.000
    H53      H        0.68110    0.66860    0.03670    1.000
    H54      H        0.64510    0.70840    0.99630    1.000
    C85      C        0.64940    0.74400    0.05810    1.000
    C86      C        0.61570    0.78510    0.04400    1.000
    H55      H        0.60160    0.79390    0.01270    1.000
    C87      C        0.60130    0.81450    0.07350    1.000
    C88      C        0.62230    0.80280    0.11790    1.000
    H56      H        0.61270    0.82500    0.13880    1.000
    C89      C        0.65640    0.76060    0.13350    1.000
    C90      C        0.66940    0.72860    0.10320    1.000
    C91      C        0.68220    0.75570    0.18330    1.000
    H57      H        0.70760    0.72860    0.18720    1.000
    H58      H        0.68990    0.80730    0.19490    1.000
    C92      C        0.66330    0.71840    0.21090    1.000
    C93      C        0.63060    0.67000    0.19450    1.000
    H59      H        0.62010    0.65550    0.16380    1.000
    C94      C        0.61380    0.64400    0.22180    1.000
    C95      C        0.62680    0.66740    0.26590    1.000
    H60      H        0.61280    0.65140    0.28400    1.000
    C96      C        0.65920    0.71270    0.28320    1.000
    C97      C        0.67900    0.73730    0.25610    1.000
    C98      C        0.67290    0.73900    0.33100    1.000
    H61      H        0.66820    0.69880    0.34960    1.000
    H62      H        0.70250    0.74950    0.34290    1.000
    O30      O        0.69310    0.88300    0.31090    1.000
    O31      O        0.67640    0.95550    0.24340    1.000
    H63      H        0.68400    0.94520    0.27090    1.000
    O32      O        0.72610    0.94310    0.20280    1.000
    H64      H        0.70360    0.93060    0.20360    1.000
    O33      O        0.77170    0.86900    0.13800    1.000
    H65      H        0.76530    0.83260    0.12010    1.000
    O34      O        0.74910    0.74630    0.09100    1.000
    H66      H        0.73050    0.72000    0.09350    1.000
    O35      O        0.70170    0.68610    0.11720    1.000
    H67      H        0.70610    0.67010    0.09490    1.000
    O36      O        0.71240    0.77750    0.27150    1.000
    H68      H        0.71900    0.78570    0.29910    1.000
    S8       S        0.56147    0.86470    0.37288    1.000
    S9       S        0.55663    0.19300    0.19103    1.000
    S10      S        0.70852    0.20502    0.08971    1.000
    S11      S        0.90830    0.03790    0.13330    1.000
    S12      S        0.69109    0.91310    0.92470    1.000
    S13      S        0.55658    0.86490    0.05350    1.000
    S14      S        0.57324    0.58280    0.20141    1.000
    O37      O        0.53440    0.80930    0.34930    1.000
    O38      O        0.54150    0.93470    0.36430    1.000
    O39      O        0.58100    0.84810    0.41870    1.000
    O40      O        0.57730    0.25530    0.18050    1.000
    O41      O        0.54650    0.21370    0.22740    1.000
    O42      O        0.52280    0.16330    0.15590    1.000
    O43      O        0.73790    0.19880    0.06980    1.000
    O44      O        0.71710    0.26590    0.12010    1.000
    O45      O        0.66790    0.20510    0.05710    1.000
    O46      O        0.91340    0.01790    0.09320    1.000
    O47      O        0.89870    0.11450    0.13540    1.000
    O48      O        0.94240    0.01110    0.17190    1.000
    O49      O        0.65870    0.95750    0.92790    1.000
    O50      O        0.72300    0.95640    0.92410    1.000
    O51      O        0.67490    0.86090    0.88850    1.000
    O52      O        0.54810    0.88500    0.08870    1.000
    O53      O        0.56070    0.92010    0.02490    1.000
    O54      O        0.52670    0.81460    0.02280    1.000
    O55      O        0.53760    0.62400    0.18390    1.000
    O56      O        0.58090    0.53610    0.17080    1.000
    O57      O        0.57370    0.53920    0.23820    1.000
    Ba3      Ba       0.48690    0.13393    0.06691    1.000
    O58      O        0.03470    0.17580    0.30000    1.000
    Ba4      Ba       0.00311    0.05257    0.24032    1.000
    C99      C        0.83840    0.37750    0.17770    1.000
    C100     C        0.84950    0.30880    0.16530    1.000
    C101     C        0.88030    0.30580    0.15070    1.000
    H69      H        0.88760    0.25900    0.14190    1.000
    C102     C        0.90130    0.36990    0.14840    1.000
    C103     C        0.89060    0.43620    0.16210    1.000
    H70      H        0.90530    0.48040    0.16140    1.000
    C104     C        0.85990    0.44100    0.17640    1.000
    C105     C        0.84640    0.51600    0.18750    1.000
    H71      H        0.85300    0.55490    0.16940    1.000
    H72      H        0.81640    0.51490    0.17780    1.000
    C106     C        0.86450    0.54000    0.23610    1.000
    C107     C        0.89300    0.59560    0.24910    1.000
    H73      H        0.90240    0.61680    0.22780    1.000
    C108     C        0.90790    0.62050    0.29110    1.000
    C109     C        0.89490    0.58960    0.32270    1.000
    H74      H        0.90510    0.60860    0.35250    1.000
    C110     C        0.86770    0.53230    0.31120    1.000
    C111     C        0.85170    0.50840    0.26720    1.000
    C112     C        0.85400    0.49790    0.34500    1.000
    H75      H        0.84910    0.44370    0.33820    1.000
    H76      H        0.87630    0.50230    0.37510    1.000
    C113     C        0.81680    0.53120    0.34720    1.000
    C114     C        0.82050    0.59320    0.37400    1.000
    H77      H        0.84650    0.61540    0.38940    1.000
    C115     C        0.78730    0.62270    0.37850    1.000
    C116     C        0.75010    0.58910    0.35790    1.000
    H78      H        0.72700    0.60800    0.36230    1.000
    C117     C        0.74650    0.52850    0.33100    1.000
    C118     C        0.77950    0.50140    0.32570    1.000
    C119     C        0.70490    0.49340    0.30750    1.000
    H79      H        0.68700    0.52960    0.28540    1.000
    H80      H        0.70760    0.44850    0.29070    1.000
    C120     C        0.68540    0.47080    0.33950    1.000
    C121     C        0.65410    0.50930    0.34060    1.000
    H81      H        0.64500    0.55230    0.32200    1.000
    C122     C        0.63420    0.48840    0.36820    1.000
    C123     C        0.64840    0.43020    0.39530    1.000
    H82      H        0.63560    0.41690    0.41530    1.000
    C124     C        0.68100    0.38820    0.39590    1.000
    C125     C        0.69860    0.40670    0.36670    1.000
    C126     C        0.69400    0.32280    0.42640    1.000
    H83      H        0.68890    0.27670    0.40790    1.000
    H84      H        0.67690    0.32030    0.44420    1.000
    C127     C        0.73790    0.32310    0.45820    1.000
    C128     C        0.74970    0.36330    0.49700    1.000
    H85      H        0.73060    0.39260    0.50370    1.000
    C129     C        0.78940    0.36080    0.52590    1.000
    C130     C        0.81610    0.31360    0.51770    1.000
    H86      H        0.84360    0.31090    0.53850    1.000
    C131     C        0.80340    0.27020    0.47960    1.000
    C132     C        0.76450    0.27900    0.44900    1.000
    C133     C        0.83270    0.21720    0.47410    1.000
    H87      H        0.81890    0.16860    0.46330    1.000
    H88      H        0.85490    0.20840    0.50370    1.000
    C134     C        0.85060    0.24400    0.44190    1.000
    C135     C        0.88430    0.28510    0.45600    1.000
    H89      H        0.89840    0.29390    0.48730    1.000
    C136     C        0.89870    0.31450    0.42650    1.000
    C137     C        0.87770    0.30280    0.38210    1.000
    H90      H        0.88730    0.32500    0.36120    1.000
    C138     C        0.84360    0.26060    0.36650    1.000
    C139     C        0.83060    0.22860    0.39680    1.000
    C140     C        0.81780    0.25570    0.31670    1.000
    H91      H        0.79240    0.22860    0.31280    1.000
    H92      H        0.81010    0.30730    0.30510    1.000
    C141     C        0.83670    0.21840    0.28910    1.000
    C142     C        0.86940    0.17000    0.30550    1.000
    H93      H        0.87990    0.15550    0.33620    1.000
    C143     C        0.88620    0.14400    0.27820    1.000
    C144     C        0.87320    0.16740    0.23410    1.000
    H94      H        0.88720    0.15140    0.21600    1.000
    C145     C        0.84080    0.21270    0.21680    1.000
    C146     C        0.82100    0.23730    0.24390    1.000
    C147     C        0.82710    0.23900    0.16900    1.000
    H95      H        0.83180    0.19880    0.15040    1.000
    H96      H        0.79750    0.24950    0.15710    1.000
    O59      O        0.80690    0.38300    0.18910    1.000
    O60      O        0.82360    0.45550    0.25660    1.000
    H97      H        0.81600    0.44520    0.22910    1.000
    O61      O        0.77390    0.44310    0.29720    1.000
    H98      H        0.79640    0.43060    0.29640    1.000
    O62      O        0.72830    0.36900    0.36200    1.000
    H99      H        0.73470    0.33260    0.37990    1.000
    O63      O        0.75090    0.24630    0.40900    1.000
    H100     H        0.76950    0.22000    0.40650    1.000
    O64      O        0.79830    0.18610    0.38280    1.000
    H101     H        0.79390    0.17010    0.40510    1.000
    O65      O        0.78760    0.27750    0.22850    1.000
    H102     H        0.78100    0.28570    0.20090    1.000
    S15      S        0.93853    0.36470    0.12712    1.000
    S16      S        0.94337    0.69300    0.30897    1.000
    S17      S        0.79148    0.70502    0.41029    1.000
    S18      S        0.59170    0.53790    0.36670    1.000
    S19      S        0.80891    0.41310    0.57530    1.000
    S20      S        0.94342    0.36490    0.44650    1.000
    S21      S        0.92676    0.08280    0.29859    1.000
    O66      O        0.96560    0.30930    0.15070    1.000
    O67      O        0.95850    0.43470    0.13570    1.000
    O68      O        0.91900    0.34810    0.08130    1.000
    O69      O        0.92270    0.75530    0.31950    1.000
    O70      O        0.95350    0.71370    0.27260    1.000
    O71      O        0.97720    0.66330    0.34410    1.000
    O72      O        0.76210    0.69880    0.43020    1.000
    O73      O        0.78290    0.76590    0.37990    1.000
    O74      O        0.83210    0.70510    0.44290    1.000
    O75      O        0.58660    0.51790    0.40680    1.000
    O76      O        0.60130    0.61450    0.36460    1.000
    O77      O        0.55760    0.51110    0.32810    1.000
    O78      O        0.84130    0.45750    0.57210    1.000
    O79      O        0.77700    0.45640    0.57590    1.000
    O80      O        0.82510    0.36090    0.61150    1.000
    O81      O        0.95190    0.38500    0.41130    1.000
    O82      O        0.93930    0.42010    0.47510    1.000
    O83      O        0.97330    0.31460    0.47720    1.000
    O84      O        0.96240    0.12400    0.31610    1.000
    O85      O        0.91910    0.03610    0.32920    1.000
    O86      O        0.92630    0.03920    0.26180    1.000
    Ba5      Ba       0.01310    0.63393    0.43309    1.000
    O87      O        0.46530    0.67580    0.20000    1.000
    Ba6      Ba       0.49689    0.55257    0.25968    1.000
    C148     C        0.33840    0.87750    0.17770    1.000
    C149     C        0.34950    0.80880    0.16530    1.000
    C150     C        0.38030    0.80580    0.15070    1.000
    H103     H        0.38760    0.75900    0.14190    1.000
    C151     C        0.40130    0.86990    0.14840    1.000
    C152     C        0.39060    0.93620    0.16210    1.000
    H104     H        0.40530    0.98040    0.16140    1.000
    C153     C        0.35990    0.94100    0.17640    1.000
    C154     C        0.34640    0.01600    0.18750    1.000
    H105     H        0.35300    0.05490    0.16940    1.000
    H106     H        0.31640    0.01490    0.17780    1.000
    C155     C        0.36450    0.04000    0.23610    1.000
    C156     C        0.39300    0.09560    0.24910    1.000
    H107     H        0.40240    0.11680    0.22780    1.000
    C157     C        0.40790    0.12050    0.29110    1.000
    C158     C        0.39490    0.08960    0.32270    1.000
    H108     H        0.40510    0.10860    0.35250    1.000
    C159     C        0.36770    0.03230    0.31120    1.000
    C160     C        0.35170    0.00840    0.26720    1.000
    C161     C        0.35400    0.99790    0.34500    1.000
    H109     H        0.34910    0.94370    0.33820    1.000
    H110     H        0.37630    0.00230    0.37510    1.000
    C162     C        0.31680    0.03120    0.34720    1.000
    C163     C        0.32050    0.09320    0.37400    1.000
    H111     H        0.34650    0.11540    0.38940    1.000
    C164     C        0.28730    0.12270    0.37850    1.000
    C165     C        0.25010    0.08910    0.35790    1.000
    H112     H        0.22700    0.10800    0.36230    1.000
    C166     C        0.24650    0.02850    0.33100    1.000
    C167     C        0.27950    0.00140    0.32570    1.000
    C168     C        0.20490    0.99340    0.30750    1.000
    H113     H        0.18700    0.02960    0.28540    1.000
    H114     H        0.20760    0.94850    0.29070    1.000
    C169     C        0.18540    0.97080    0.33950    1.000
    C170     C        0.15410    0.00930    0.34060    1.000
    H115     H        0.14500    0.05230    0.32200    1.000
    C171     C        0.13420    0.98840    0.36820    1.000
    C172     C        0.14840    0.93020    0.39530    1.000
    H116     H        0.13560    0.91690    0.41530    1.000
    C173     C        0.18100    0.88820    0.39590    1.000
    C174     C        0.19860    0.90670    0.36670    1.000
    C175     C        0.19400    0.82280    0.42640    1.000
    H117     H        0.18890    0.77670    0.40790    1.000
    H118     H        0.17690    0.82030    0.44420    1.000
    C176     C        0.23790    0.82310    0.45820    1.000
    C177     C        0.24970    0.86330    0.49700    1.000
    H119     H        0.23060    0.89260    0.50370    1.000
    C178     C        0.28940    0.86080    0.52590    1.000
    C179     C        0.31610    0.81360    0.51770    1.000
    H120     H        0.34360    0.81090    0.53850    1.000
    C180     C        0.30340    0.77020    0.47960    1.000
    C181     C        0.26450    0.77900    0.44900    1.000
    C182     C        0.33270    0.71720    0.47410    1.000
    H121     H        0.31890    0.66860    0.46330    1.000
    H122     H        0.35490    0.70840    0.50370    1.000
    C183     C        0.35060    0.74400    0.44190    1.000
    C184     C        0.38430    0.78510    0.45600    1.000
    H123     H        0.39840    0.79390    0.48730    1.000
    C185     C        0.39870    0.81450    0.42650    1.000
    C186     C        0.37770    0.80280    0.38210    1.000
    H124     H        0.38730    0.82500    0.36120    1.000
    C187     C        0.34360    0.76060    0.36650    1.000
    C188     C        0.33060    0.72860    0.39680    1.000
    C189     C        0.31780    0.75570    0.31670    1.000
    H125     H        0.29240    0.72860    0.31280    1.000
    H126     H        0.31010    0.80730    0.30510    1.000
    C190     C        0.33670    0.71840    0.28910    1.000
    C191     C        0.36940    0.67000    0.30550    1.000
    H127     H        0.37990    0.65550    0.33620    1.000
    C192     C        0.38620    0.64400    0.27820    1.000
    C193     C        0.37320    0.66740    0.23410    1.000
    H128     H        0.38720    0.65140    0.21600    1.000
    C194     C        0.34080    0.71270    0.21680    1.000
    C195     C        0.32100    0.73730    0.24390    1.000
    C196     C        0.32710    0.73900    0.16900    1.000
    H129     H        0.33180    0.69880    0.15040    1.000
    H130     H        0.29750    0.74950    0.15710    1.000
    O88      O        0.30690    0.88300    0.18910    1.000
    O89      O        0.32360    0.95550    0.25660    1.000
    H131     H        0.31600    0.94520    0.22910    1.000
    O90      O        0.27390    0.94310    0.29720    1.000
    H132     H        0.29640    0.93060    0.29640    1.000
    O91      O        0.22830    0.86900    0.36200    1.000
    H133     H        0.23470    0.83260    0.37990    1.000
    O92      O        0.25090    0.74630    0.40900    1.000
    H134     H        0.26950    0.72000    0.40650    1.000
    O93      O        0.29830    0.68610    0.38280    1.000
    H135     H        0.29390    0.67010    0.40510    1.000
    O94      O        0.28760    0.77750    0.22850    1.000
    H136     H        0.28100    0.78570    0.20090    1.000
    S22      S        0.43853    0.86470    0.12712    1.000
    S23      S        0.44337    0.19300    0.30897    1.000
    S24      S        0.29148    0.20502    0.41029    1.000
    S25      S        0.09170    0.03790    0.36670    1.000
    S26      S        0.30891    0.91310    0.57530    1.000
    S27      S        0.44342    0.86490    0.44650    1.000
    S28      S        0.42676    0.58280    0.29859    1.000
    O95      O        0.46560    0.80930    0.15070    1.000
    O96      O        0.45850    0.93470    0.13570    1.000
    O97      O        0.41900    0.84810    0.08130    1.000
    O98      O        0.42270    0.25530    0.31950    1.000
    O99      O        0.45350    0.21370    0.27260    1.000
    O100     O        0.47720    0.16330    0.34410    1.000
    O101     O        0.26210    0.19880    0.43020    1.000
    O102     O        0.28290    0.26590    0.37990    1.000
    O103     O        0.33210    0.20510    0.44290    1.000
    O104     O        0.08660    0.01790    0.40680    1.000
    O105     O        0.10130    0.11450    0.36460    1.000
    O106     O        0.05760    0.01110    0.32810    1.000
    O107     O        0.34130    0.95750    0.57210    1.000
    O108     O        0.27700    0.95640    0.57590    1.000
    O109     O        0.32510    0.86090    0.61150    1.000
    O110     O        0.45190    0.88500    0.41130    1.000
    O111     O        0.43930    0.92010    0.47510    1.000
    O112     O        0.47330    0.81460    0.47720    1.000
    O113     O        0.46240    0.62400    0.31610    1.000
    O114     O        0.41910    0.53610    0.32920    1.000
    O115     O        0.42630    0.53920    0.26180    1.000
    Ba7      Ba       0.51310    0.13393    0.43309    1.000
    O116     O        0.96530    0.17580    0.20000    1.000
    Ba8      Ba       0.99689    0.05257    0.25968    1.000
    C197     C        0.83840    0.62250    0.67770    1.000
    C198     C        0.84950    0.69120    0.66530    1.000
    C199     C        0.88030    0.69420    0.65070    1.000
    H137     H        0.88760    0.74100    0.64190    1.000
    C200     C        0.90130    0.63010    0.64840    1.000
    C201     C        0.89060    0.56380    0.66210    1.000
    H138     H        0.90530    0.51960    0.66140    1.000
    C202     C        0.85990    0.55900    0.67640    1.000
    C203     C        0.84640    0.48400    0.68750    1.000
    H139     H        0.85300    0.44510    0.66940    1.000
    H140     H        0.81640    0.48510    0.67780    1.000
    C204     C        0.86450    0.46000    0.73610    1.000
    C205     C        0.89300    0.40440    0.74910    1.000
    H141     H        0.90240    0.38320    0.72780    1.000
    C206     C        0.90790    0.37950    0.79110    1.000
    C207     C        0.89490    0.41040    0.82270    1.000
    H142     H        0.90510    0.39140    0.85250    1.000
    C208     C        0.86770    0.46770    0.81120    1.000
    C209     C        0.85170    0.49160    0.76720    1.000
    C210     C        0.85400    0.50210    0.84500    1.000
    H143     H        0.84910    0.55630    0.83820    1.000
    H144     H        0.87630    0.49770    0.87510    1.000
    C211     C        0.81680    0.46880    0.84720    1.000
    C212     C        0.82050    0.40680    0.87400    1.000
    H145     H        0.84650    0.38460    0.88940    1.000
    C213     C        0.78730    0.37730    0.87850    1.000
    C214     C        0.75010    0.41090    0.85790    1.000
    H146     H        0.72700    0.39200    0.86230    1.000
    C215     C        0.74650    0.47150    0.83100    1.000
    C216     C        0.77950    0.49860    0.82570    1.000
    C217     C        0.70490    0.50660    0.80750    1.000
    H147     H        0.68700    0.47040    0.78540    1.000
    H148     H        0.70760    0.55150    0.79070    1.000
    C218     C        0.68540    0.52920    0.83950    1.000
    C219     C        0.65410    0.49070    0.84060    1.000
    H149     H        0.64500    0.44770    0.82200    1.000
    C220     C        0.63420    0.51160    0.86820    1.000
    C221     C        0.64840    0.56980    0.89530    1.000
    H150     H        0.63560    0.58310    0.91530    1.000
    C222     C        0.68100    0.61180    0.89590    1.000
    C223     C        0.69860    0.59330    0.86670    1.000
    C224     C        0.69400    0.67720    0.92640    1.000
    H151     H        0.68890    0.72330    0.90790    1.000
    H152     H        0.67690    0.67970    0.94420    1.000
    C225     C        0.73790    0.67690    0.95820    1.000
    C226     C        0.74970    0.63670    0.99700    1.000
    H153     H        0.73060    0.60740    0.00370    1.000
    C227     C        0.78940    0.63920    0.02590    1.000
    C228     C        0.81610    0.68640    0.01770    1.000
    H154     H        0.84360    0.68910    0.03850    1.000
    C229     C        0.80340    0.72980    0.97960    1.000
    C230     C        0.76450    0.72100    0.94900    1.000
    C231     C        0.83270    0.78280    0.97410    1.000
    H155     H        0.81890    0.83140    0.96330    1.000
    H156     H        0.85490    0.79160    0.00370    1.000
    C232     C        0.85060    0.75600    0.94190    1.000
    C233     C        0.88430    0.71490    0.95600    1.000
    H157     H        0.89840    0.70610    0.98730    1.000
    C234     C        0.89870    0.68550    0.92650    1.000
    C235     C        0.87770    0.69720    0.88210    1.000
    H158     H        0.88730    0.67500    0.86120    1.000
    C236     C        0.84360    0.73940    0.86650    1.000
    C237     C        0.83060    0.77140    0.89680    1.000
    C238     C        0.81780    0.74430    0.81670    1.000
    H159     H        0.79240    0.77140    0.81280    1.000
    H160     H        0.81010    0.69270    0.80510    1.000
    C239     C        0.83670    0.78160    0.78910    1.000
    C240     C        0.86940    0.83000    0.80550    1.000
    H161     H        0.87990    0.84450    0.83620    1.000
    C241     C        0.88620    0.85600    0.77820    1.000
    C242     C        0.87320    0.83260    0.73410    1.000
    H162     H        0.88720    0.84860    0.71600    1.000
    C243     C        0.84080    0.78730    0.71680    1.000
    C244     C        0.82100    0.76270    0.74390    1.000
    C245     C        0.82710    0.76100    0.66900    1.000
    H163     H        0.83180    0.80120    0.65040    1.000
    H164     H        0.79750    0.75050    0.65710    1.000
    O117     O        0.80690    0.61700    0.68910    1.000
    O118     O        0.82360    0.54450    0.75660    1.000
    H165     H        0.81600    0.55480    0.72910    1.000
    O119     O        0.77390    0.55690    0.79720    1.000
    H166     H        0.79640    0.56940    0.79640    1.000
    O120     O        0.72830    0.63100    0.86200    1.000
    H167     H        0.73470    0.66740    0.87990    1.000
    O121     O        0.75090    0.75370    0.90900    1.000
    H168     H        0.76950    0.78000    0.90650    1.000
    O122     O        0.79830    0.81390    0.88280    1.000
    H169     H        0.79390    0.82990    0.90510    1.000
    O123     O        0.78760    0.72250    0.72850    1.000
    H170     H        0.78100    0.71430    0.70090    1.000
    S29      S        0.93853    0.63530    0.62712    1.000
    S30      S        0.94337    0.30700    0.80897    1.000
    S31      S        0.79148    0.29498    0.91029    1.000
    S32      S        0.59170    0.46210    0.86670    1.000
    S33      S        0.80891    0.58690    0.07530    1.000
    S34      S        0.94342    0.63510    0.94650    1.000
    S35      S        0.92676    0.91720    0.79859    1.000
    O124     O        0.96560    0.69070    0.65070    1.000
    O125     O        0.95850    0.56530    0.63570    1.000
    O126     O        0.91900    0.65190    0.58130    1.000
    O127     O        0.92270    0.24470    0.81950    1.000
    O128     O        0.95350    0.28630    0.77260    1.000
    O129     O        0.97720    0.33670    0.84410    1.000
    O130     O        0.76210    0.30120    0.93020    1.000
    O131     O        0.78290    0.23410    0.87990    1.000
    O132     O        0.83210    0.29490    0.94290    1.000
    O133     O        0.58660    0.48210    0.90680    1.000
    O134     O        0.60130    0.38550    0.86460    1.000
    O135     O        0.55760    0.48890    0.82810    1.000
    O136     O        0.84130    0.54250    0.07210    1.000
    O137     O        0.77700    0.54360    0.07590    1.000
    O138     O        0.82510    0.63910    0.11150    1.000
    O139     O        0.95190    0.61500    0.91130    1.000
    O140     O        0.93930    0.57990    0.97510    1.000
    O141     O        0.97330    0.68540    0.97720    1.000
    O142     O        0.96240    0.87600    0.81610    1.000
    O143     O        0.91910    0.96390    0.82920    1.000
    O144     O        0.92630    0.96080    0.76180    1.000
    Ba9      Ba       0.01310    0.36607    0.93309    1.000
    O145     O        0.46530    0.32420    0.70000    1.000
    Ba10     Ba       0.49689    0.44743    0.75968    1.000
    C246     C        0.33840    0.12250    0.67770    1.000
    C247     C        0.34950    0.19120    0.66530    1.000
    C248     C        0.38030    0.19420    0.65070    1.000
    H171     H        0.38760    0.24100    0.64190    1.000
    C249     C        0.40130    0.13010    0.64840    1.000
    C250     C        0.39060    0.06380    0.66210    1.000
    H172     H        0.40530    0.01960    0.66140    1.000
    C251     C        0.35990    0.05900    0.67640    1.000
    C252     C        0.34640    0.98400    0.68750    1.000
    H173     H        0.35300    0.94510    0.66940    1.000
    H174     H        0.31640    0.98510    0.67780    1.000
    C253     C        0.36450    0.96000    0.73610    1.000
    C254     C        0.39300    0.90440    0.74910    1.000
    H175     H        0.40240    0.88320    0.72780    1.000
    C255     C        0.40790    0.87950    0.79110    1.000
    C256     C        0.39490    0.91040    0.82270    1.000
    H176     H        0.40510    0.89140    0.85250    1.000
    C257     C        0.36770    0.96770    0.81120    1.000
    C258     C        0.35170    0.99160    0.76720    1.000
    C259     C        0.35400    0.00210    0.84500    1.000
    H177     H        0.34910    0.05630    0.83820    1.000
    H178     H        0.37630    0.99770    0.87510    1.000
    C260     C        0.31680    0.96880    0.84720    1.000
    C261     C        0.32050    0.90680    0.87400    1.000
    H179     H        0.34650    0.88460    0.88940    1.000
    C262     C        0.28730    0.87730    0.87850    1.000
    C263     C        0.25010    0.91090    0.85790    1.000
    H180     H        0.22700    0.89200    0.86230    1.000
    C264     C        0.24650    0.97150    0.83100    1.000
    C265     C        0.27950    0.99860    0.82570    1.000
    C266     C        0.20490    0.00660    0.80750    1.000
    H181     H        0.18700    0.97040    0.78540    1.000
    H182     H        0.20760    0.05150    0.79070    1.000
    C267     C        0.18540    0.02920    0.83950    1.000
    C268     C        0.15410    0.99070    0.84060    1.000
    H183     H        0.14500    0.94770    0.82200    1.000
    C269     C        0.13420    0.01160    0.86820    1.000
    C270     C        0.14840    0.06980    0.89530    1.000
    H184     H        0.13560    0.08310    0.91530    1.000
    C271     C        0.18100    0.11180    0.89590    1.000
    C272     C        0.19860    0.09330    0.86670    1.000
    C273     C        0.19400    0.17720    0.92640    1.000
    H185     H        0.18890    0.22330    0.90790    1.000
    H186     H        0.17690    0.17970    0.94420    1.000
    C274     C        0.23790    0.17690    0.95820    1.000
    C275     C        0.24970    0.13670    0.99700    1.000
    H187     H        0.23060    0.10740    0.00370    1.000
    C276     C        0.28940    0.13920    0.02590    1.000
    C277     C        0.31610    0.18640    0.01770    1.000
    H188     H        0.34360    0.18910    0.03850    1.000
    C278     C        0.30340    0.22980    0.97960    1.000
    C279     C        0.26450    0.22100    0.94900    1.000
    C280     C        0.33270    0.28280    0.97410    1.000
    H189     H        0.31890    0.33140    0.96330    1.000
    H190     H        0.35490    0.29160    0.00370    1.000
    C281     C        0.35060    0.25600    0.94190    1.000
    C282     C        0.38430    0.21490    0.95600    1.000
    H191     H        0.39840    0.20610    0.98730    1.000
    C283     C        0.39870    0.18550    0.92650    1.000
    C284     C        0.37770    0.19720    0.88210    1.000
    H192     H        0.38730    0.17500    0.86120    1.000
    C285     C        0.34360    0.23940    0.86650    1.000
    C286     C        0.33060    0.27140    0.89680    1.000
    C287     C        0.31780    0.24430    0.81670    1.000
    H193     H        0.29240    0.27140    0.81280    1.000
    H194     H        0.31010    0.19270    0.80510    1.000
    C288     C        0.33670    0.28160    0.78910    1.000
    C289     C        0.36940    0.33000    0.80550    1.000
    H195     H        0.37990    0.34450    0.83620    1.000
    C290     C        0.38620    0.35600    0.77820    1.000
    C291     C        0.37320    0.33260    0.73410    1.000
    H196     H        0.38720    0.34860    0.71600    1.000
    C292     C        0.34080    0.28730    0.71680    1.000
    C293     C        0.32100    0.26270    0.74390    1.000
    C294     C        0.32710    0.26100    0.66900    1.000
    H197     H        0.33180    0.30120    0.65040    1.000
    H198     H        0.29750    0.25050    0.65710    1.000
    O146     O        0.30690    0.11700    0.68910    1.000
    O147     O        0.32360    0.04450    0.75660    1.000
    H199     H        0.31600    0.05480    0.72910    1.000
    O148     O        0.27390    0.05690    0.79720    1.000
    H200     H        0.29640    0.06940    0.79640    1.000
    O149     O        0.22830    0.13100    0.86200    1.000
    H201     H        0.23470    0.16740    0.87990    1.000
    O150     O        0.25090    0.25370    0.90900    1.000
    H202     H        0.26950    0.28000    0.90650    1.000
    O151     O        0.29830    0.31390    0.88280    1.000
    H203     H        0.29390    0.32990    0.90510    1.000
    O152     O        0.28760    0.22250    0.72850    1.000
    H204     H        0.28100    0.21430    0.70090    1.000
    S36      S        0.43853    0.13530    0.62712    1.000
    S37      S        0.44337    0.80700    0.80897    1.000
    S38      S        0.29148    0.79498    0.91029    1.000
    S39      S        0.09170    0.96210    0.86670    1.000
    S40      S        0.30891    0.08690    0.07530    1.000
    S41      S        0.44342    0.13510    0.94650    1.000
    S42      S        0.42676    0.41720    0.79859    1.000
    O153     O        0.46560    0.19070    0.65070    1.000
    O154     O        0.45850    0.06530    0.63570    1.000
    O155     O        0.41900    0.15190    0.58130    1.000
    O156     O        0.42270    0.74470    0.81950    1.000
    O157     O        0.45350    0.78630    0.77260    1.000
    O158     O        0.47720    0.83670    0.84410    1.000
    O159     O        0.26210    0.80120    0.93020    1.000
    O160     O        0.28290    0.73410    0.87990    1.000
    O161     O        0.33210    0.79490    0.94290    1.000
    O162     O        0.08660    0.98210    0.90680    1.000
    O163     O        0.10130    0.88550    0.86460    1.000
    O164     O        0.05760    0.98890    0.82810    1.000
    O165     O        0.34130    0.04250    0.07210    1.000
    O166     O        0.27700    0.04360    0.07590    1.000
    O167     O        0.32510    0.13910    0.11150    1.000
    O168     O        0.45190    0.11500    0.91130    1.000
    O169     O        0.43930    0.07990    0.97510    1.000
    O170     O        0.47330    0.18540    0.97720    1.000
    O171     O        0.46240    0.37600    0.81610    1.000
    O172     O        0.41910    0.46390    0.82920    1.000
    O173     O        0.42630    0.46080    0.76180    1.000
    Ba11     Ba       0.51310    0.86607    0.93309    1.000
    O174     O        0.96530    0.82420    0.70000    1.000
    Ba12     Ba       0.99689    0.94743    0.75968    1.000
    C295     C        0.16160    0.62250    0.82230    1.000
    C296     C        0.15050    0.69120    0.83470    1.000
    C297     C        0.11970    0.69420    0.84930    1.000
    H205     H        0.11240    0.74100    0.85810    1.000
    C298     C        0.09870    0.63010    0.85160    1.000
    C299     C        0.10940    0.56380    0.83790    1.000
    H206     H        0.09470    0.51960    0.83860    1.000
    C300     C        0.14010    0.55900    0.82360    1.000
    C301     C        0.15360    0.48400    0.81250    1.000
    H207     H        0.14700    0.44510    0.83060    1.000
    H208     H        0.18360    0.48510    0.82220    1.000
    C302     C        0.13550    0.46000    0.76390    1.000
    C303     C        0.10700    0.40440    0.75090    1.000
    H209     H        0.09760    0.38320    0.77220    1.000
    C304     C        0.09210    0.37950    0.70890    1.000
    C305     C        0.10510    0.41040    0.67730    1.000
    H210     H        0.09490    0.39140    0.64750    1.000
    C306     C        0.13230    0.46770    0.68880    1.000
    C307     C        0.14830    0.49160    0.73280    1.000
    C308     C        0.14600    0.50210    0.65500    1.000
    H211     H        0.15090    0.55630    0.66180    1.000
    H212     H        0.12370    0.49770    0.62490    1.000
    C309     C        0.18320    0.46880    0.65280    1.000
    C310     C        0.17950    0.40680    0.62600    1.000
    H213     H        0.15350    0.38460    0.61060    1.000
    C311     C        0.21270    0.37730    0.62150    1.000
    C312     C        0.24990    0.41090    0.64210    1.000
    H214     H        0.27300    0.39200    0.63770    1.000
    C313     C        0.25350    0.47150    0.66900    1.000
    C314     C        0.22050    0.49860    0.67430    1.000
    C315     C        0.29510    0.50660    0.69250    1.000
    H215     H        0.31300    0.47040    0.71460    1.000
    H216     H        0.29240    0.55150    0.70930    1.000
    C316     C        0.31460    0.52920    0.66050    1.000
    C317     C        0.34590    0.49070    0.65940    1.000
    H217     H        0.35500    0.44770    0.67800    1.000
    C318     C        0.36580    0.51160    0.63180    1.000
    C319     C        0.35160    0.56980    0.60470    1.000
    H218     H        0.36440    0.58310    0.58470    1.000
    C320     C        0.31900    0.61180    0.60410    1.000
    C321     C        0.30140    0.59330    0.63330    1.000
    C322     C        0.30600    0.67720    0.57360    1.000
    H219     H        0.31110    0.72330    0.59210    1.000
    H220     H        0.32310    0.67970    0.55580    1.000
    C323     C        0.26210    0.67690    0.54180    1.000
    C324     C        0.25030    0.63670    0.50300    1.000
    H221     H        0.26940    0.60740    0.49630    1.000
    C325     C        0.21060    0.63920    0.47410    1.000
    C326     C        0.18390    0.68640    0.48230    1.000
    H222     H        0.15640    0.68910    0.46150    1.000
    C327     C        0.19660    0.72980    0.52040    1.000
    C328     C        0.23550    0.72100    0.55100    1.000
    C329     C        0.16730    0.78280    0.52590    1.000
    H223     H        0.18110    0.83140    0.53670    1.000
    H224     H        0.14510    0.79160    0.49630    1.000
    C330     C        0.14940    0.75600    0.55810    1.000
    C331     C        0.11570    0.71490    0.54400    1.000
    H225     H        0.10160    0.70610    0.51270    1.000
    C332     C        0.10130    0.68550    0.57350    1.000
    C333     C        0.12230    0.69720    0.61790    1.000
    H226     H        0.11270    0.67500    0.63880    1.000
    C334     C        0.15640    0.73940    0.63350    1.000
    C335     C        0.16940    0.77140    0.60320    1.000
    C336     C        0.18220    0.74430    0.68330    1.000
    H227     H        0.20760    0.77140    0.68720    1.000
    H228     H        0.18990    0.69270    0.69490    1.000
    C337     C        0.16330    0.78160    0.71090    1.000
    C338     C        0.13060    0.83000    0.69450    1.000
    H229     H        0.12010    0.84450    0.66380    1.000
    C339     C        0.11380    0.85600    0.72180    1.000
    C340     C        0.12680    0.83260    0.76590    1.000
    H230     H        0.11280    0.84860    0.78400    1.000
    C341     C        0.15920    0.78730    0.78320    1.000
    C342     C        0.17900    0.76270    0.75610    1.000
    C343     C        0.17290    0.76100    0.83100    1.000
    H231     H        0.16820    0.80120    0.84960    1.000
    H232     H        0.20250    0.75050    0.84290    1.000
    O175     O        0.19310    0.61700    0.81090    1.000
    O176     O        0.17640    0.54450    0.74340    1.000
    H233     H        0.18400    0.55480    0.77090    1.000
    O177     O        0.22610    0.55690    0.70280    1.000
    H234     H        0.20360    0.56940    0.70360    1.000
    O178     O        0.27170    0.63100    0.63800    1.000
    H235     H        0.26530    0.66740    0.62010    1.000
    O179     O        0.24910    0.75370    0.59100    1.000
    H236     H        0.23050    0.78000    0.59350    1.000
    O180     O        0.20170    0.81390    0.61720    1.000
    H237     H        0.20610    0.82990    0.59490    1.000
    O181     O        0.21240    0.72250    0.77150    1.000
    H238     H        0.21900    0.71430    0.79910    1.000
    S43      S        0.06147    0.63530    0.87288    1.000
    S44      S        0.05663    0.30700    0.69103    1.000
    S45      S        0.20852    0.29498    0.58971    1.000
    S46      S        0.40830    0.46210    0.63330    1.000
    S47      S        0.19109    0.58690    0.42470    1.000
    S48      S        0.05658    0.63510    0.55350    1.000
    S49      S        0.07324    0.91720    0.70141    1.000
    O182     O        0.03440    0.69070    0.84930    1.000
    O183     O        0.04150    0.56530    0.86430    1.000
    O184     O        0.08100    0.65190    0.91870    1.000
    O185     O        0.07730    0.24470    0.68050    1.000
    O186     O        0.04650    0.28630    0.72740    1.000
    O187     O        0.02280    0.33670    0.65590    1.000
    O188     O        0.23790    0.30120    0.56980    1.000
    O189     O        0.21710    0.23410    0.62010    1.000
    O190     O        0.16790    0.29490    0.55710    1.000
    O191     O        0.41340    0.48210    0.59320    1.000
    O192     O        0.39870    0.38550    0.63540    1.000
    O193     O        0.44240    0.48890    0.67190    1.000
    O194     O        0.15870    0.54250    0.42790    1.000
    O195     O        0.22300    0.54360    0.42410    1.000
    O196     O        0.17490    0.63910    0.38850    1.000
    O197     O        0.04810    0.61500    0.58870    1.000
    O198     O        0.06070    0.57990    0.52490    1.000
    O199     O        0.02670    0.68540    0.52280    1.000
    O200     O        0.03760    0.87600    0.68390    1.000
    O201     O        0.08090    0.96390    0.67080    1.000
    O202     O        0.07370    0.96080    0.73820    1.000
    Ba13     Ba       0.98690    0.36607    0.56691    1.000
    O203     O        0.53470    0.32420    0.80000    1.000
    Ba14     Ba       0.50311    0.44743    0.74032    1.000
    C344     C        0.66160    0.12250    0.82230    1.000
    C345     C        0.65050    0.19120    0.83470    1.000
    C346     C        0.61970    0.19420    0.84930    1.000
    H239     H        0.61240    0.24100    0.85810    1.000
    C347     C        0.59870    0.13010    0.85160    1.000
    C348     C        0.60940    0.06380    0.83790    1.000
    H240     H        0.59470    0.01960    0.83860    1.000
    C349     C        0.64010    0.05900    0.82360    1.000
    C350     C        0.65360    0.98400    0.81250    1.000
    H241     H        0.64700    0.94510    0.83060    1.000
    H242     H        0.68360    0.98510    0.82220    1.000
    C351     C        0.63550    0.96000    0.76390    1.000
    C352     C        0.60700    0.90440    0.75090    1.000
    H243     H        0.59760    0.88320    0.77220    1.000
    C353     C        0.59210    0.87950    0.70890    1.000
    C354     C        0.60510    0.91040    0.67730    1.000
    H244     H        0.59490    0.89140    0.64750    1.000
    C355     C        0.63230    0.96770    0.68880    1.000
    C356     C        0.64830    0.99160    0.73280    1.000
    C357     C        0.64600    0.00210    0.65500    1.000
    H245     H        0.65090    0.05630    0.66180    1.000
    H246     H        0.62370    0.99770    0.62490    1.000
    C358     C        0.68320    0.96880    0.65280    1.000
    C359     C        0.67950    0.90680    0.62600    1.000
    H247     H        0.65350    0.88460    0.61060    1.000
    C360     C        0.71270    0.87730    0.62150    1.000
    C361     C        0.74990    0.91090    0.64210    1.000
    H248     H        0.77300    0.89200    0.63770    1.000
    C362     C        0.75350    0.97150    0.66900    1.000
    C363     C        0.72050    0.99860    0.67430    1.000
    C364     C        0.79510    0.00660    0.69250    1.000
    H249     H        0.81300    0.97040    0.71460    1.000
    H250     H        0.79240    0.05150    0.70930    1.000
    C365     C        0.81460    0.02920    0.66050    1.000
    C366     C        0.84590    0.99070    0.65940    1.000
    H251     H        0.85500    0.94770    0.67800    1.000
    C367     C        0.86580    0.01160    0.63180    1.000
    C368     C        0.85160    0.06980    0.60470    1.000
    H252     H        0.86440    0.08310    0.58470    1.000
    C369     C        0.81900    0.11180    0.60410    1.000
    C370     C        0.80140    0.09330    0.63330    1.000
    C371     C        0.80600    0.17720    0.57360    1.000
    H253     H        0.81110    0.22330    0.59210    1.000
    H254     H        0.82310    0.17970    0.55580    1.000
    C372     C        0.76210    0.17690    0.54180    1.000
    C373     C        0.75030    0.13670    0.50300    1.000
    H255     H        0.76940    0.10740    0.49630    1.000
    C374     C        0.71060    0.13920    0.47410    1.000
    C375     C        0.68390    0.18640    0.48230    1.000
    H256     H        0.65640    0.18910    0.46150    1.000
    C376     C        0.69660    0.22980    0.52040    1.000
    C377     C        0.73550    0.22100    0.55100    1.000
    C378     C        0.66730    0.28280    0.52590    1.000
    H257     H        0.68110    0.33140    0.53670    1.000
    H258     H        0.64510    0.29160    0.49630    1.000
    C379     C        0.64940    0.25600    0.55810    1.000
    C380     C        0.61570    0.21490    0.54400    1.000
    H259     H        0.60160    0.20610    0.51270    1.000
    C381     C        0.60130    0.18550    0.57350    1.000
    C382     C        0.62230    0.19720    0.61790    1.000
    H260     H        0.61270    0.17500    0.63880    1.000
    C383     C        0.65640    0.23940    0.63350    1.000
    C384     C        0.66940    0.27140    0.60320    1.000
    C385     C        0.68220    0.24430    0.68330    1.000
    H261     H        0.70760    0.27140    0.68720    1.000
    H262     H        0.68990    0.19270    0.69490    1.000
    C386     C        0.66330    0.28160    0.71090    1.000
    C387     C        0.63060    0.33000    0.69450    1.000
    H263     H        0.62010    0.34450    0.66380    1.000
    C388     C        0.61380    0.35600    0.72180    1.000
    C389     C        0.62680    0.33260    0.76590    1.000
    H264     H        0.61280    0.34860    0.78400    1.000
    C390     C        0.65920    0.28730    0.78320    1.000
    C391     C        0.67900    0.26270    0.75610    1.000
    C392     C        0.67290    0.26100    0.83100    1.000
    H265     H        0.66820    0.30120    0.84960    1.000
    H266     H        0.70250    0.25050    0.84290    1.000
    O204     O        0.69310    0.11700    0.81090    1.000
    O205     O        0.67640    0.04450    0.74340    1.000
    H267     H        0.68400    0.05480    0.77090    1.000
    O206     O        0.72610    0.05690    0.70280    1.000
    H268     H        0.70360    0.06940    0.70360    1.000
    O207     O        0.77170    0.13100    0.63800    1.000
    H269     H        0.76530    0.16740    0.62010    1.000
    O208     O        0.74910    0.25370    0.59100    1.000
    H270     H        0.73050    0.28000    0.59350    1.000
    O209     O        0.70170    0.31390    0.61720    1.000
    H271     H        0.70610    0.32990    0.59490    1.000
    O210     O        0.71240    0.22250    0.77150    1.000
    H272     H        0.71900    0.21430    0.79910    1.000
    S50      S        0.56147    0.13530    0.87288    1.000
    S51      S        0.55663    0.80700    0.69103    1.000
    S52      S        0.70852    0.79498    0.58971    1.000
    S53      S        0.90830    0.96210    0.63330    1.000
    S54      S        0.69109    0.08690    0.42470    1.000
    S55      S        0.55658    0.13510    0.55350    1.000
    S56      S        0.57324    0.41720    0.70141    1.000
    O211     O        0.53440    0.19070    0.84930    1.000
    O212     O        0.54150    0.06530    0.86430    1.000
    O213     O        0.58100    0.15190    0.91870    1.000
    O214     O        0.57730    0.74470    0.68050    1.000
    O215     O        0.54650    0.78630    0.72740    1.000
    O216     O        0.52280    0.83670    0.65590    1.000
    O217     O        0.73790    0.80120    0.56980    1.000
    O218     O        0.71710    0.73410    0.62010    1.000
    O219     O        0.66790    0.79490    0.55710    1.000
    O220     O        0.91340    0.98210    0.59320    1.000
    O221     O        0.89870    0.88550    0.63540    1.000
    O222     O        0.94240    0.98890    0.67190    1.000
    O223     O        0.65870    0.04250    0.42790    1.000
    O224     O        0.72300    0.04360    0.42410    1.000
    O225     O        0.67490    0.13910    0.38850    1.000
    O226     O        0.54810    0.11500    0.58870    1.000
    O227     O        0.56070    0.07990    0.52490    1.000
    O228     O        0.52670    0.18540    0.52280    1.000
    O229     O        0.53760    0.37600    0.68390    1.000
    O230     O        0.58090    0.46390    0.67080    1.000
    O231     O        0.57370    0.46080    0.73820    1.000
    Ba15     Ba       0.48690    0.86607    0.56691    1.000
    O232     O        0.03470    0.82420    0.80000    1.000
    Ba16     Ba       0.00311    0.94743    0.74032    1.000
    O233     O        0.50000    0.40530    0.25000    1.000
    O234     O        0.00000    0.90530    0.25000    1.000
    O235     O        0.50000    0.59470    0.75000    1.000
    O236     O        0.00000    0.09470    0.75000    1.000
