# CIF file generated by openbabel 3.1.0, see https://openbabel.org
data_I
_chemical_name_common 'image0'
_cell_length_a 15.947
_cell_length_b 15.391
_cell_length_c 19.064
_cell_angle_alpha 90
_cell_angle_beta 101.182
_cell_angle_gamma 90
_space_group_name_H-M_alt 'P 1'
_space_group_name_Hall 'P 1'
loop_
    _symmetry_equiv_pos_as_xyz
    x,y,z
loop_
    _atom_site_label
    _atom_site_type_symbol
    _atom_site_fract_x
    _atom_site_fract_y
    _atom_site_fract_z
    _atom_site_occupancy
    C1       C        0.37540    0.98200    0.11730    1.000
    H1       H        0.41990    0.95840    0.09850    1.000
    C2       C        0.33710    0.05830    0.08940    1.000
    C3       C        0.27090    0.09420    0.11820    1.000
    H2       H        0.24660    0.14680    0.10100    1.000
    C4       C        0.24090    0.05030    0.17340    1.000
    C5       C        0.28170    0.97630    0.20340    1.000
    H3       H        0.26540    0.95080    0.24290    1.000
    C6       C        0.34700    0.93970    0.17450    1.000
    C7       C        0.39290    0.85800    0.20270    1.000
    C8       C        0.16680    0.09290    0.19920    1.000
    C9       C        0.37350    0.11000    0.03660    1.000
    C10      C        0.38110    0.20000    0.03260    1.000
    H4       H        0.37090    0.23460    0.07010    1.000
    C11      C        0.40340    0.23830    0.97370    1.000
    H5       H        0.41060    0.29820    0.97340    1.000
    N1       N        0.41580    0.19030    0.91430    1.000
    C12      C        0.41290    0.10700    0.91940    1.000
    H6       H        0.43050    0.07440    0.88390    1.000
    C13      C        0.38520    0.06180    0.97470    1.000
    H7       H        0.37470    0.00230    0.97130    1.000
    O1       O        0.13790    0.15860    0.16790    1.000
    O2       O        0.14000    0.05820    0.25130    1.000
    O3       O        0.44300    0.82620    0.16590    1.000
    O4       O        0.37710    0.82490    0.26030    1.000
    Co1      Co       0.54025    0.74172    0.17026    1.000
    C14      C        0.36000    0.09800    0.02090    1.000
    C15      C        0.44870    0.11140    0.02680    1.000
    H8       H        0.48830    0.09420    0.06680    1.000
    C16      C        0.47210    0.15180    0.96940    1.000
    H9       H        0.53040    0.15470    0.96960    1.000
    C17      C        0.33470    0.16890    0.90660    1.000
    H10      H        0.29850    0.18470    0.86420    1.000
    C18      C        0.30120    0.12740    0.96310    1.000
    H11      H        0.24270    0.12090    0.96070    1.000
    N2       N        0.42370    0.18500    0.91680    1.000
    C19      C        0.87540    0.48200    0.11730    1.000
    H12      H        0.91990    0.45840    0.09850    1.000
    C20      C        0.83710    0.55830    0.08940    1.000
    C21      C        0.77090    0.59420    0.11820    1.000
    H13      H        0.74660    0.64680    0.10100    1.000
    C22      C        0.74090    0.55030    0.17340    1.000
    C23      C        0.78170    0.47630    0.20340    1.000
    H14      H        0.76540    0.45080    0.24290    1.000
    C24      C        0.84700    0.43970    0.17450    1.000
    C25      C        0.89290    0.35800    0.20270    1.000
    C26      C        0.66680    0.59290    0.19920    1.000
    C27      C        0.87350    0.61000    0.03660    1.000
    C28      C        0.88110    0.70000    0.03260    1.000
    H15      H        0.87090    0.73460    0.07010    1.000
    C29      C        0.90340    0.73830    0.97370    1.000
    H16      H        0.91060    0.79820    0.97340    1.000
    N3       N        0.91580    0.69030    0.91430    1.000
    C30      C        0.91290    0.60700    0.91940    1.000
    H17      H        0.93050    0.57440    0.88390    1.000
    C31      C        0.88520    0.56180    0.97470    1.000
    H18      H        0.87470    0.50230    0.97130    1.000
    O5       O        0.63790    0.65860    0.16790    1.000
    O6       O        0.64000    0.55820    0.25130    1.000
    O7       O        0.94300    0.32620    0.16590    1.000
    O8       O        0.87710    0.32490    0.26030    1.000
    Co2      Co       0.04025    0.24172    0.17026    1.000
    C32      C        0.86000    0.59800    0.02090    1.000
    C33      C        0.94870    0.61140    0.02680    1.000
    H19      H        0.98830    0.59420    0.06680    1.000
    C34      C        0.97210    0.65180    0.96940    1.000
    H20      H        0.03040    0.65470    0.96960    1.000
    C35      C        0.83470    0.66890    0.90660    1.000
    H21      H        0.79850    0.68470    0.86420    1.000
    C36      C        0.80120    0.62740    0.96310    1.000
    H22      H        0.74270    0.62090    0.96070    1.000
    N4       N        0.92370    0.68500    0.91680    1.000
    C37      C        0.62460    0.98200    0.38270    1.000
    H23      H        0.58010    0.95840    0.40150    1.000
    C38      C        0.66290    0.05830    0.41060    1.000
    C39      C        0.72910    0.09420    0.38180    1.000
    H24      H        0.75340    0.14680    0.39900    1.000
    C40      C        0.75910    0.05030    0.32660    1.000
    C41      C        0.71830    0.97630    0.29660    1.000
    H25      H        0.73460    0.95080    0.25710    1.000
    C42      C        0.65300    0.93970    0.32550    1.000
    C43      C        0.60710    0.85800    0.29730    1.000
    C44      C        0.83320    0.09290    0.30080    1.000
    C45      C        0.62650    0.11000    0.46340    1.000
    C46      C        0.61890    0.20000    0.46740    1.000
    H26      H        0.62910    0.23460    0.42990    1.000
    C47      C        0.59660    0.23830    0.52630    1.000
    H27      H        0.58940    0.29820    0.52660    1.000
    N5       N        0.58420    0.19030    0.58570    1.000
    C48      C        0.58710    0.10700    0.58060    1.000
    H28      H        0.56950    0.07440    0.61610    1.000
    C49      C        0.61480    0.06180    0.52530    1.000
    H29      H        0.62530    0.00230    0.52870    1.000
    O9       O        0.86210    0.15860    0.33210    1.000
    O10      O        0.86000    0.05820    0.24870    1.000
    O11      O        0.55700    0.82620    0.33410    1.000
    O12      O        0.62290    0.82490    0.23970    1.000
    Co3      Co       0.45975    0.74172    0.32974    1.000
    C50      C        0.64000    0.09800    0.47910    1.000
    C51      C        0.55130    0.11140    0.47320    1.000
    H30      H        0.51170    0.09420    0.43320    1.000
    C52      C        0.52790    0.15180    0.53060    1.000
    H31      H        0.46960    0.15470    0.53040    1.000
    C53      C        0.66530    0.16890    0.59340    1.000
    H32      H        0.70150    0.18470    0.63580    1.000
    C54      C        0.69880    0.12740    0.53690    1.000
    H33      H        0.75730    0.12090    0.53930    1.000
    N6       N        0.57630    0.18500    0.58320    1.000
    C55      C        0.12460    0.48200    0.38270    1.000
    H34      H        0.08010    0.45840    0.40150    1.000
    C56      C        0.16290    0.55830    0.41060    1.000
    C57      C        0.22910    0.59420    0.38180    1.000
    H35      H        0.25340    0.64680    0.39900    1.000
    C58      C        0.25910    0.55030    0.32660    1.000
    C59      C        0.21830    0.47630    0.29660    1.000
    H36      H        0.23460    0.45080    0.25710    1.000
    C60      C        0.15300    0.43970    0.32550    1.000
    C61      C        0.10710    0.35800    0.29730    1.000
    C62      C        0.33320    0.59290    0.30080    1.000
    C63      C        0.12650    0.61000    0.46340    1.000
    C64      C        0.11890    0.70000    0.46740    1.000
    H37      H        0.12910    0.73460    0.42990    1.000
    C65      C        0.09660    0.73830    0.52630    1.000
    H38      H        0.08940    0.79820    0.52660    1.000
    N7       N        0.08420    0.69030    0.58570    1.000
    C66      C        0.08710    0.60700    0.58060    1.000
    H39      H        0.06950    0.57440    0.61610    1.000
    C67      C        0.11480    0.56180    0.52530    1.000
    H40      H        0.12530    0.50230    0.52870    1.000
    O13      O        0.36210    0.65860    0.33210    1.000
    O14      O        0.36000    0.55820    0.24870    1.000
    O15      O        0.05700    0.32620    0.33410    1.000
    O16      O        0.12290    0.32490    0.23970    1.000
    Co4      Co       0.95975    0.24172    0.32974    1.000
    C68      C        0.14000    0.59800    0.47910    1.000
    C69      C        0.05130    0.61140    0.47320    1.000
    H41      H        0.01170    0.59420    0.43320    1.000
    C70      C        0.02790    0.65180    0.53060    1.000
    H42      H        0.96960    0.65470    0.53040    1.000
    C71      C        0.16530    0.66890    0.59340    1.000
    H43      H        0.20150    0.68470    0.63580    1.000
    C72      C        0.19880    0.62740    0.53690    1.000
    H44      H        0.25730    0.62090    0.53930    1.000
    N8       N        0.07630    0.68500    0.58320    1.000
    C73      C        0.62460    0.01800    0.88270    1.000
    H45      H        0.58010    0.04160    0.90150    1.000
    C74      C        0.66290    0.94170    0.91060    1.000
    C75      C        0.72910    0.90580    0.88180    1.000
    H46      H        0.75340    0.85320    0.89900    1.000
    C76      C        0.75910    0.94970    0.82660    1.000
    C77      C        0.71830    0.02370    0.79660    1.000
    H47      H        0.73460    0.04920    0.75710    1.000
    C78      C        0.65300    0.06030    0.82550    1.000
    C79      C        0.60710    0.14200    0.79730    1.000
    C80      C        0.83320    0.90710    0.80080    1.000
    C81      C        0.62650    0.89000    0.96340    1.000
    C82      C        0.61890    0.80000    0.96740    1.000
    H48      H        0.62910    0.76540    0.92990    1.000
    C83      C        0.59660    0.76170    0.02630    1.000
    H49      H        0.58940    0.70180    0.02660    1.000
    N9       N        0.58420    0.80970    0.08570    1.000
    C84      C        0.58710    0.89300    0.08060    1.000
    H50      H        0.56950    0.92560    0.11610    1.000
    C85      C        0.61480    0.93820    0.02530    1.000
    H51      H        0.62530    0.99770    0.02870    1.000
    O17      O        0.86210    0.84140    0.83210    1.000
    O18      O        0.86000    0.94180    0.74870    1.000
    O19      O        0.55700    0.17380    0.83410    1.000
    O20      O        0.62290    0.17510    0.73970    1.000
    Co5      Co       0.45975    0.25828    0.82974    1.000
    C86      C        0.64000    0.90200    0.97910    1.000
    C87      C        0.55130    0.88860    0.97320    1.000
    H52      H        0.51170    0.90580    0.93320    1.000
    C88      C        0.52790    0.84820    0.03060    1.000
    H53      H        0.46960    0.84530    0.03040    1.000
    C89      C        0.66530    0.83110    0.09340    1.000
    H54      H        0.70150    0.81530    0.13580    1.000
    C90      C        0.69880    0.87260    0.03690    1.000
    H55      H        0.75730    0.87910    0.03930    1.000
    N10      N        0.57630    0.81500    0.08320    1.000
    C91      C        0.12460    0.51800    0.88270    1.000
    H56      H        0.08010    0.54160    0.90150    1.000
    C92      C        0.16290    0.44170    0.91060    1.000
    C93      C        0.22910    0.40580    0.88180    1.000
    H57      H        0.25340    0.35320    0.89900    1.000
    C94      C        0.25910    0.44970    0.82660    1.000
    C95      C        0.21830    0.52370    0.79660    1.000
    H58      H        0.23460    0.54920    0.75710    1.000
    C96      C        0.15300    0.56030    0.82550    1.000
    C97      C        0.10710    0.64200    0.79730    1.000
    C98      C        0.33320    0.40710    0.80080    1.000
    C99      C        0.12650    0.39000    0.96340    1.000
    C100     C        0.11890    0.30000    0.96740    1.000
    H59      H        0.12910    0.26540    0.92990    1.000
    C101     C        0.09660    0.26170    0.02630    1.000
    H60      H        0.08940    0.20180    0.02660    1.000
    N11      N        0.08420    0.30970    0.08570    1.000
    C102     C        0.08710    0.39300    0.08060    1.000
    H61      H        0.06950    0.42560    0.11610    1.000
    C103     C        0.11480    0.43820    0.02530    1.000
    H62      H        0.12530    0.49770    0.02870    1.000
    O21      O        0.36210    0.34140    0.83210    1.000
    O22      O        0.36000    0.44180    0.74870    1.000
    O23      O        0.05700    0.67380    0.83410    1.000
    O24      O        0.12290    0.67510    0.73970    1.000
    Co6      Co       0.95975    0.75828    0.82974    1.000
    C104     C        0.14000    0.40200    0.97910    1.000
    C105     C        0.05130    0.38860    0.97320    1.000
    H63      H        0.01170    0.40580    0.93320    1.000
    C106     C        0.02790    0.34820    0.03060    1.000
    H64      H        0.96960    0.34530    0.03040    1.000
    C107     C        0.16530    0.33110    0.09340    1.000
    H65      H        0.20150    0.31530    0.13580    1.000
    C108     C        0.19880    0.37260    0.03690    1.000
    H66      H        0.25730    0.37910    0.03930    1.000
    N12      N        0.07630    0.31500    0.08320    1.000
    C109     C        0.37540    0.01800    0.61730    1.000
    H67      H        0.41990    0.04160    0.59850    1.000
    C110     C        0.33710    0.94170    0.58940    1.000
    C111     C        0.27090    0.90580    0.61820    1.000
    H68      H        0.24660    0.85320    0.60100    1.000
    C112     C        0.24090    0.94970    0.67340    1.000
    C113     C        0.28170    0.02370    0.70340    1.000
    H69      H        0.26540    0.04920    0.74290    1.000
    C114     C        0.34700    0.06030    0.67450    1.000
    C115     C        0.39290    0.14200    0.70270    1.000
    C116     C        0.16680    0.90710    0.69920    1.000
    C117     C        0.37350    0.89000    0.53660    1.000
    C118     C        0.38110    0.80000    0.53260    1.000
    H70      H        0.37090    0.76540    0.57010    1.000
    C119     C        0.40340    0.76170    0.47370    1.000
    H71      H        0.41060    0.70180    0.47340    1.000
    N13      N        0.41580    0.80970    0.41430    1.000
    C120     C        0.41290    0.89300    0.41940    1.000
    H72      H        0.43050    0.92560    0.38390    1.000
    C121     C        0.38520    0.93820    0.47470    1.000
    H73      H        0.37470    0.99770    0.47130    1.000
    O25      O        0.13790    0.84140    0.66790    1.000
    O26      O        0.14000    0.94180    0.75130    1.000
    O27      O        0.44300    0.17380    0.66590    1.000
    O28      O        0.37710    0.17510    0.76030    1.000
    Co7      Co       0.54025    0.25828    0.67026    1.000
    C122     C        0.36000    0.90200    0.52090    1.000
    C123     C        0.44870    0.88860    0.52680    1.000
    H74      H        0.48830    0.90580    0.56680    1.000
    C124     C        0.47210    0.84820    0.46940    1.000
    H75      H        0.53040    0.84530    0.46960    1.000
    C125     C        0.33470    0.83110    0.40660    1.000
    H76      H        0.29850    0.81530    0.36420    1.000
    C126     C        0.30120    0.87260    0.46310    1.000
    H77      H        0.24270    0.87910    0.46070    1.000
    N14      N        0.42370    0.81500    0.41680    1.000
    C127     C        0.87540    0.51800    0.61730    1.000
    H78      H        0.91990    0.54160    0.59850    1.000
    C128     C        0.83710    0.44170    0.58940    1.000
    C129     C        0.77090    0.40580    0.61820    1.000
    H79      H        0.74660    0.35320    0.60100    1.000
    C130     C        0.74090    0.44970    0.67340    1.000
    C131     C        0.78170    0.52370    0.70340    1.000
    H80      H        0.76540    0.54920    0.74290    1.000
    C132     C        0.84700    0.56030    0.67450    1.000
    C133     C        0.89290    0.64200    0.70270    1.000
    C134     C        0.66680    0.40710    0.69920    1.000
    C135     C        0.87350    0.39000    0.53660    1.000
    C136     C        0.88110    0.30000    0.53260    1.000
    H81      H        0.87090    0.26540    0.57010    1.000
    C137     C        0.90340    0.26170    0.47370    1.000
    H82      H        0.91060    0.20180    0.47340    1.000
    N15      N        0.91580    0.30970    0.41430    1.000
    C138     C        0.91290    0.39300    0.41940    1.000
    H83      H        0.93050    0.42560    0.38390    1.000
    C139     C        0.88520    0.43820    0.47470    1.000
    H84      H        0.87470    0.49770    0.47130    1.000
    O29      O        0.63790    0.34140    0.66790    1.000
    O30      O        0.64000    0.44180    0.75130    1.000
    O31      O        0.94300    0.67380    0.66590    1.000
    O32      O        0.87710    0.67510    0.76030    1.000
    Co8      Co       0.04025    0.75828    0.67026    1.000
    C140     C        0.86000    0.40200    0.52090    1.000
    C141     C        0.94870    0.38860    0.52680    1.000
    H85      H        0.98830    0.40580    0.56680    1.000
    C142     C        0.97210    0.34820    0.46940    1.000
    H86      H        0.03040    0.34530    0.46960    1.000
    C143     C        0.83470    0.33110    0.40660    1.000
    H87      H        0.79850    0.31530    0.36420    1.000
    C144     C        0.80120    0.37260    0.46310    1.000
    H88      H        0.74270    0.37910    0.46070    1.000
    N16      N        0.92370    0.31500    0.41680    1.000
    Na1      Na       0.50000    0.55020    0.25000    1.000
    O33      O        0.50000    0.65960    0.25000    1.000
    Na2      Na       0.00000    0.05020    0.25000    1.000
    O34      O        0.00000    0.15960    0.25000    1.000
    Na3      Na       0.50000    0.44980    0.75000    1.000
    O35      O        0.50000    0.34040    0.75000    1.000
    Na4      Na       0.00000    0.94980    0.75000    1.000
    O36      O        0.00000    0.84040    0.75000    1.000
