# CIF file generated by openbabel 3.1.0, see https://openbabel.org
data_I
_chemical_name_common 'image0'
_cell_length_a 16.1322
_cell_length_b 15.7981
_cell_length_c 11.6042
_cell_angle_alpha 90
_cell_angle_beta 90
_cell_angle_gamma 90
_space_group_name_H-M_alt 'P 1'
_space_group_name_Hall 'P 1'
loop_
    _symmetry_equiv_pos_as_xyz
    x,y,z
loop_
    _atom_site_label
    _atom_site_type_symbol
    _atom_site_fract_x
    _atom_site_fract_y
    _atom_site_fract_z
    _atom_site_occupancy
    C1       C        0.64334    0.40130    0.94850    1.000
    C2       C        0.57298    0.35150    0.00060    1.000
    C3       C        0.58730    0.27540    0.05700    1.000
    H1       H        0.64140    0.25670    0.06760    1.000
    C4       C        0.52162    0.22670    0.09770    1.000
    H2       H        0.53210    0.17610    0.13610    1.000
    C5       C        0.43967    0.25368    0.08120    1.000
    C6       C        0.42540    0.33050    0.02630    1.000
    H3       H        0.37130    0.34940    0.01590    1.000
    C7       C        0.49124    0.37970    0.98640    1.000
    H4       H        0.48090    0.43130    0.95050    1.000
    C8       C        0.37027    0.20214    0.12180    1.000
    C9       C        0.37134    0.12614    0.18090    1.000
    H5       H        0.41850    0.09620    0.20250    1.000
    C10      C        0.24300    0.16560    0.16230    1.000
    H6       H        0.18570    0.16800    0.16980    1.000
    N1       N        0.29016    0.10222    0.20250    1.000
    N2       N        0.28824    0.22415    0.11080    1.000
    H7       H        0.26960    0.26840    0.07640    1.000
    O1       O        0.71710    0.37680    0.96347    1.000
    O2       O        0.62562    0.46625    0.89141    1.000
    C11      C        0.85666    0.59870    0.94850    1.000
    C12      C        0.92702    0.64850    0.00060    1.000
    C13      C        0.91270    0.72460    0.05700    1.000
    H8       H        0.85860    0.74330    0.06760    1.000
    C14      C        0.97838    0.77330    0.09770    1.000
    H9       H        0.96790    0.82390    0.13610    1.000
    C15      C        0.06033    0.74632    0.08120    1.000
    C16      C        0.07460    0.66950    0.02630    1.000
    H10      H        0.12870    0.65060    0.01590    1.000
    C17      C        0.00876    0.62030    0.98640    1.000
    H11      H        0.01910    0.56870    0.95050    1.000
    C18      C        0.12973    0.79786    0.12180    1.000
    C19      C        0.12866    0.87386    0.18090    1.000
    H12      H        0.08150    0.90380    0.20250    1.000
    C20      C        0.25700    0.83440    0.16230    1.000
    H13      H        0.31430    0.83200    0.16980    1.000
    N3       N        0.20984    0.89778    0.20250    1.000
    N4       N        0.21176    0.77585    0.11080    1.000
    H14      H        0.23040    0.73160    0.07640    1.000
    O3       O        0.78290    0.62320    0.96347    1.000
    O4       O        0.87438    0.53375    0.89141    1.000
    C21      C        0.14334    0.09870    0.44850    1.000
    C22      C        0.07298    0.14850    0.50060    1.000
    C23      C        0.08730    0.22460    0.55700    1.000
    H15      H        0.14140    0.24330    0.56760    1.000
    C24      C        0.02162    0.27330    0.59770    1.000
    H16      H        0.03210    0.32390    0.63610    1.000
    C25      C        0.93967    0.24632    0.58120    1.000
    C26      C        0.92540    0.16950    0.52630    1.000
    H17      H        0.87130    0.15060    0.51590    1.000
    C27      C        0.99124    0.12030    0.48640    1.000
    H18      H        0.98090    0.06870    0.45050    1.000
    C28      C        0.87027    0.29786    0.62180    1.000
    C29      C        0.87134    0.37386    0.68090    1.000
    H19      H        0.91850    0.40380    0.70250    1.000
    C30      C        0.74300    0.33440    0.66230    1.000
    H20      H        0.68570    0.33200    0.66980    1.000
    N5       N        0.79016    0.39778    0.70250    1.000
    N6       N        0.78824    0.27585    0.61080    1.000
    H21      H        0.76960    0.23160    0.57640    1.000
    O5       O        0.21710    0.12320    0.46347    1.000
    O6       O        0.12562    0.03375    0.39141    1.000
    C31      C        0.35666    0.90130    0.44850    1.000
    C32      C        0.42702    0.85150    0.50060    1.000
    C33      C        0.41270    0.77540    0.55700    1.000
    H22      H        0.35860    0.75670    0.56760    1.000
    C34      C        0.47838    0.72670    0.59770    1.000
    H23      H        0.46790    0.67610    0.63610    1.000
    C35      C        0.56033    0.75368    0.58120    1.000
    C36      C        0.57460    0.83050    0.52630    1.000
    H24      H        0.62870    0.84940    0.51590    1.000
    C37      C        0.50876    0.87970    0.48640    1.000
    H25      H        0.51910    0.93130    0.45050    1.000
    C38      C        0.62973    0.70214    0.62180    1.000
    C39      C        0.62866    0.62614    0.68090    1.000
    H26      H        0.58150    0.59620    0.70250    1.000
    C40      C        0.75700    0.66560    0.66230    1.000
    H27      H        0.81430    0.66800    0.66980    1.000
    N7       N        0.70984    0.60222    0.70250    1.000
    N8       N        0.71176    0.72415    0.61080    1.000
    H28      H        0.73040    0.76840    0.57640    1.000
    O7       O        0.28290    0.87680    0.46347    1.000
    O8       O        0.37438    0.96625    0.39141    1.000
    Cd1      Cd       0.75000    0.50000    0.82528    1.000
    Cd2      Cd       0.25000    0.00000    0.32528    1.000
    C41      C        0.85666    0.90130    0.55150    1.000
    C42      C        0.92702    0.85150    0.49940    1.000
    C43      C        0.91270    0.77540    0.44300    1.000
    H29      H        0.85860    0.75670    0.43240    1.000
    C44      C        0.97838    0.72670    0.40230    1.000
    H30      H        0.96790    0.67610    0.36390    1.000
    C45      C        0.06033    0.75368    0.41880    1.000
    C46      C        0.07460    0.83050    0.47370    1.000
    H31      H        0.12870    0.84940    0.48410    1.000
    C47      C        0.00876    0.87970    0.51360    1.000
    H32      H        0.01910    0.93130    0.54950    1.000
    C48      C        0.12973    0.70214    0.37820    1.000
    C49      C        0.12866    0.62614    0.31910    1.000
    H33      H        0.08150    0.59620    0.29750    1.000
    C50      C        0.25700    0.66560    0.33770    1.000
    H34      H        0.31430    0.66800    0.33020    1.000
    N9       N        0.20984    0.60222    0.29750    1.000
    N10      N        0.21176    0.72415    0.38920    1.000
    H35      H        0.23040    0.76840    0.42360    1.000
    O9       O        0.78290    0.87680    0.53653    1.000
    O10      O        0.87438    0.96625    0.60859    1.000
    C51      C        0.64334    0.09870    0.55150    1.000
    C52      C        0.57298    0.14850    0.49940    1.000
    C53      C        0.58730    0.22460    0.44300    1.000
    H36      H        0.64140    0.24330    0.43240    1.000
    C54      C        0.52162    0.27330    0.40230    1.000
    H37      H        0.53210    0.32390    0.36390    1.000
    C55      C        0.43967    0.24632    0.41880    1.000
    C56      C        0.42540    0.16950    0.47370    1.000
    H38      H        0.37130    0.15060    0.48410    1.000
    C57      C        0.49124    0.12030    0.51360    1.000
    H39      H        0.48090    0.06870    0.54950    1.000
    C58      C        0.37027    0.29786    0.37820    1.000
    C59      C        0.37134    0.37386    0.31910    1.000
    H40      H        0.41850    0.40380    0.29750    1.000
    C60      C        0.24300    0.33440    0.33770    1.000
    H41      H        0.18570    0.33200    0.33020    1.000
    N11      N        0.29016    0.39778    0.29750    1.000
    N12      N        0.28824    0.27585    0.38920    1.000
    H42      H        0.26960    0.23160    0.42360    1.000
    O11      O        0.71710    0.12320    0.53653    1.000
    O12      O        0.62562    0.03375    0.60859    1.000
    C61      C        0.35666    0.59870    0.05150    1.000
    C62      C        0.42702    0.64850    0.99940    1.000
    C63      C        0.41270    0.72460    0.94300    1.000
    H43      H        0.35860    0.74330    0.93240    1.000
    C64      C        0.47838    0.77330    0.90230    1.000
    H44      H        0.46790    0.82390    0.86390    1.000
    C65      C        0.56033    0.74632    0.91880    1.000
    C66      C        0.57460    0.66950    0.97370    1.000
    H45      H        0.62870    0.65060    0.98410    1.000
    C67      C        0.50876    0.62030    0.01360    1.000
    H46      H        0.51910    0.56870    0.04950    1.000
    C68      C        0.62973    0.79786    0.87820    1.000
    C69      C        0.62866    0.87386    0.81910    1.000
    H47      H        0.58150    0.90380    0.79750    1.000
    C70      C        0.75700    0.83440    0.83770    1.000
    H48      H        0.81430    0.83200    0.83020    1.000
    N13      N        0.70984    0.89778    0.79750    1.000
    N14      N        0.71176    0.77585    0.88920    1.000
    H49      H        0.73040    0.73160    0.92360    1.000
    O13      O        0.28290    0.62320    0.03653    1.000
    O14      O        0.37438    0.53375    0.10859    1.000
    C71      C        0.14334    0.40130    0.05150    1.000
    C72      C        0.07298    0.35150    0.99940    1.000
    C73      C        0.08730    0.27540    0.94300    1.000
    H50      H        0.14140    0.25670    0.93240    1.000
    C74      C        0.02162    0.22670    0.90230    1.000
    H51      H        0.03210    0.17610    0.86390    1.000
    C75      C        0.93967    0.25368    0.91880    1.000
    C76      C        0.92540    0.33050    0.97370    1.000
    H52      H        0.87130    0.34940    0.98410    1.000
    C77      C        0.99124    0.37970    0.01360    1.000
    H53      H        0.98090    0.43130    0.04950    1.000
    C78      C        0.87027    0.20214    0.87820    1.000
    C79      C        0.87134    0.12614    0.81910    1.000
    H54      H        0.91850    0.09620    0.79750    1.000
    C80      C        0.74300    0.16560    0.83770    1.000
    H55      H        0.68570    0.16800    0.83020    1.000
    N15      N        0.79016    0.10222    0.79750    1.000
    N16      N        0.78824    0.22415    0.88920    1.000
    H56      H        0.76960    0.26840    0.92360    1.000
    O15      O        0.21710    0.37680    0.03653    1.000
    O16      O        0.12562    0.46625    0.10859    1.000
    Cd3      Cd       0.75000    0.00000    0.67472    1.000
    Cd4      Cd       0.25000    0.50000    0.17472    1.000
