# CIF file generated by openbabel 3.1.0, see https://openbabel.org
data_I
_chemical_name_common 'image0'
_cell_length_a 15.1796
_cell_length_b 19.303
_cell_length_c 25.806
_cell_angle_alpha 90
_cell_angle_beta 90
_cell_angle_gamma 90
_space_group_name_H-M_alt 'P 1'
_space_group_name_Hall 'P 1'
loop_
    _symmetry_equiv_pos_as_xyz
    x,y,z
loop_
    _atom_site_label
    _atom_site_type_symbol
    _atom_site_fract_x
    _atom_site_fract_y
    _atom_site_fract_z
    _atom_site_occupancy
    Zn1      Zn       0.52963    0.96428    0.54850    1.000
    Zn2      Zn       0.57345    0.83853    0.76664    1.000
    N1       N        0.63970    0.83460    0.65980    1.000
    N2       N        0.58030    0.86940    0.69184    1.000
    N3       N        0.57370    0.91530    0.61318    1.000
    N4       N        0.46070    0.78590    0.78400    1.000
    O1       O        0.52690    0.06560    0.57110    1.000
    O2       O        0.48590    0.12070    0.49900    1.000
    O3       O        0.64500    0.98200    0.50910    1.000
    O4       O        0.60270    0.03830    0.43840    1.000
    O5       O        0.83970    0.12090    0.31770    1.000
    O6       O        0.95820    0.06090    0.30980    1.000
    O7       O        0.96250    0.91490    0.47200    1.000
    C1       C        0.69210    0.84420    0.56900    1.000
    H1       H        0.73920    0.81510    0.58090    1.000
    H2       H        0.71610    0.88510    0.55330    1.000
    H3       H        0.65750    0.81940    0.54390    1.000
    C2       C        0.63510    0.86420    0.61390    1.000
    C3       C        0.54240    0.91680    0.66210    1.000
    C4       C        0.47370    0.96580    0.68050    1.000
    H4       H        0.41740    0.94330    0.68010    1.000
    H5       H        0.47210    0.00550    0.65800    1.000
    H6       H        0.48730    0.98040    0.71510    1.000
    C5       C        0.51060    0.11890    0.54680    1.000
    C6       C        0.51570    0.18780    0.57410    1.000
    C7       C        0.52620    0.18780    0.62670    1.000
    H7       H        0.53090    0.14620    0.64470    1.000
    C8       C        0.88660    0.07300    0.33210    1.000
    C9       C        0.85910    0.03110    0.37860    1.000
    C10      C        0.92210    0.98750    0.40200    1.000
    H8       H        0.97660    0.98030    0.38640    1.000
    C11      C        0.90130    0.95510    0.44910    1.000
    C12      C        0.81530    0.96230    0.46890    1.000
    H9       H        0.80020    0.93960    0.49950    1.000
    C13      C        0.75240    0.00260    0.44390    1.000
    C14      C        0.77470    0.03750    0.39840    1.000
    H10      H        0.73320    0.06470    0.38150    1.000
    C15      C        0.65990    0.00800    0.46630    1.000
    C16      C        0.35000    0.87840    0.79800    1.000
    H11      H        0.39610    0.90860    0.78620    1.000
    H12      H        0.33440    0.89020    0.83300    1.000
    H13      H        0.29930    0.88360    0.77610    1.000
    C17      C        0.38120    0.80510    0.79610    1.000
    C18      C        0.57000    0.18600    0.73470    1.000
    H14      H        0.63080    0.17100    0.73280    1.000
    H15      H        0.53240    0.14820    0.72250    1.000
    C19      C        0.52600    0.21380    0.78700    1.000
    H16      H        0.56670    0.21290    0.81510    1.000
    H17      H        0.48630    0.17510    0.78960    1.000
    H18      H        0.49250    0.25570    0.78780    1.000
    C20      C        0.94990    0.88490    0.52070    1.000
    H19      H        0.90380    0.85010    0.51990    1.000
    H20      H        0.93570    0.91950    0.54670    1.000
    C21      C        0.04450    0.85110    0.53070    1.000
    H21      H        0.03820    0.80260    0.53790    1.000
    H22      H        0.07340    0.87330    0.55930    1.000
    H23      H        0.07910    0.85710    0.49990    1.000
    Zn3      Zn       0.97037    0.03572    0.04850    1.000
    Zn4      Zn       0.92655    0.16147    0.26664    1.000
    N5       N        0.86030    0.16540    0.15980    1.000
    N6       N        0.91970    0.13060    0.19184    1.000
    N7       N        0.92630    0.08470    0.11318    1.000
    N8       N        0.03930    0.21410    0.28400    1.000
    O8       O        0.97310    0.93440    0.07110    1.000
    O9       O        0.01410    0.87930    0.99900    1.000
    O10      O        0.85500    0.01800    0.00910    1.000
    O11      O        0.89730    0.96170    0.93840    1.000
    O12      O        0.66030    0.87910    0.81770    1.000
    O13      O        0.54180    0.93910    0.80980    1.000
    O14      O        0.53750    0.08510    0.97200    1.000
    C22      C        0.80790    0.15580    0.06900    1.000
    H24      H        0.76080    0.18490    0.08090    1.000
    H25      H        0.78390    0.11490    0.05330    1.000
    H26      H        0.84250    0.18060    0.04390    1.000
    C23      C        0.86490    0.13580    0.11390    1.000
    C24      C        0.95760    0.08320    0.16210    1.000
    C25      C        0.02630    0.03420    0.18050    1.000
    H27      H        0.08260    0.05670    0.18010    1.000
    H28      H        0.02790    0.99450    0.15800    1.000
    H29      H        0.01270    0.01960    0.21510    1.000
    C26      C        0.98940    0.88110    0.04680    1.000
    C27      C        0.98430    0.81220    0.07410    1.000
    C28      C        0.97380    0.81220    0.12670    1.000
    H30      H        0.96910    0.85380    0.14470    1.000
    C29      C        0.61340    0.92700    0.83210    1.000
    C30      C        0.64090    0.96890    0.87860    1.000
    C31      C        0.57790    0.01250    0.90200    1.000
    H31      H        0.52340    0.01970    0.88640    1.000
    C32      C        0.59870    0.04490    0.94910    1.000
    C33      C        0.68470    0.03770    0.96890    1.000
    H32      H        0.69980    0.06040    0.99950    1.000
    C34      C        0.74760    0.99740    0.94390    1.000
    C35      C        0.72530    0.96250    0.89840    1.000
    H33      H        0.76680    0.93530    0.88150    1.000
    C36      C        0.84010    0.99200    0.96630    1.000
    C37      C        0.15000    0.12160    0.29800    1.000
    H34      H        0.10390    0.09140    0.28620    1.000
    H35      H        0.16560    0.10980    0.33300    1.000
    H36      H        0.20070    0.11640    0.27610    1.000
    C38      C        0.11880    0.19490    0.29610    1.000
    C39      C        0.93000    0.81400    0.23470    1.000
    H37      H        0.86920    0.82900    0.23280    1.000
    H38      H        0.96760    0.85180    0.22250    1.000
    C40      C        0.97400    0.78620    0.28700    1.000
    H39      H        0.93330    0.78710    0.31510    1.000
    H40      H        0.01370    0.82490    0.28960    1.000
    H41      H        0.00750    0.74430    0.28780    1.000
    C41      C        0.55010    0.11510    0.02070    1.000
    H42      H        0.59620    0.14990    0.01990    1.000
    H43      H        0.56430    0.08050    0.04670    1.000
    C42      C        0.45550    0.14890    0.03070    1.000
    H44      H        0.46180    0.19740    0.03790    1.000
    H45      H        0.42660    0.12670    0.05930    1.000
    H46      H        0.42090    0.14290    0.99990    1.000
    Zn5      Zn       0.47037    0.46428    0.45150    1.000
    Zn6      Zn       0.42655    0.33853    0.23336    1.000
    N9       N        0.36030    0.33460    0.34020    1.000
    N10      N        0.41970    0.36940    0.30816    1.000
    N11      N        0.42630    0.41530    0.38682    1.000
    N12      N        0.53930    0.28590    0.21600    1.000
    O15      O        0.47310    0.56560    0.42890    1.000
    O16      O        0.51410    0.62070    0.50100    1.000
    O17      O        0.35500    0.48200    0.49090    1.000
    O18      O        0.39730    0.53830    0.56160    1.000
    O19      O        0.16030    0.62090    0.68230    1.000
    O20      O        0.04180    0.56090    0.69020    1.000
    O21      O        0.03750    0.41490    0.52800    1.000
    C43      C        0.30790    0.34420    0.43100    1.000
    H47      H        0.26080    0.31510    0.41910    1.000
    H48      H        0.28390    0.38510    0.44670    1.000
    H49      H        0.34250    0.31940    0.45610    1.000
    C44      C        0.36490    0.36420    0.38610    1.000
    C45      C        0.45760    0.41680    0.33790    1.000
    C46      C        0.52630    0.46580    0.31950    1.000
    H50      H        0.58260    0.44330    0.31990    1.000
    H51      H        0.52790    0.50550    0.34200    1.000
    H52      H        0.51270    0.48040    0.28490    1.000
    C47      C        0.48940    0.61890    0.45320    1.000
    C48      C        0.48430    0.68780    0.42590    1.000
    C49      C        0.47380    0.68780    0.37330    1.000
    H53      H        0.46910    0.64620    0.35530    1.000
    C50      C        0.11340    0.57300    0.66790    1.000
    C51      C        0.14090    0.53110    0.62140    1.000
    C52      C        0.07790    0.48750    0.59800    1.000
    H54      H        0.02340    0.48030    0.61360    1.000
    C53      C        0.09870    0.45510    0.55090    1.000
    C54      C        0.18470    0.46230    0.53110    1.000
    H55      H        0.19980    0.43960    0.50050    1.000
    C55      C        0.24760    0.50260    0.55610    1.000
    C56      C        0.22530    0.53750    0.60160    1.000
    H56      H        0.26680    0.56470    0.61850    1.000
    C57      C        0.34010    0.50800    0.53370    1.000
    C58      C        0.65000    0.37840    0.20200    1.000
    H57      H        0.60390    0.40860    0.21380    1.000
    H58      H        0.66560    0.39020    0.16700    1.000
    H59      H        0.70070    0.38360    0.22390    1.000
    C59      C        0.61880    0.30510    0.20390    1.000
    C60      C        0.43000    0.68600    0.26530    1.000
    H60      H        0.36920    0.67100    0.26720    1.000
    H61      H        0.46760    0.64820    0.27750    1.000
    C61      C        0.47400    0.71380    0.21300    1.000
    H62      H        0.43330    0.71290    0.18490    1.000
    H63      H        0.51370    0.67510    0.21040    1.000
    H64      H        0.50750    0.75570    0.21220    1.000
    C62      C        0.05010    0.38490    0.47930    1.000
    H65      H        0.09620    0.35010    0.48010    1.000
    H66      H        0.06430    0.41950    0.45330    1.000
    C63      C        0.95550    0.35110    0.46930    1.000
    H67      H        0.96180    0.30260    0.46210    1.000
    H68      H        0.92660    0.37330    0.44070    1.000
    H69      H        0.92090    0.35710    0.50010    1.000
    Zn7      Zn       0.02963    0.53572    0.95150    1.000
    Zn8      Zn       0.07345    0.66147    0.73336    1.000
    N13      N        0.13970    0.66540    0.84020    1.000
    N14      N        0.08030    0.63060    0.80816    1.000
    N15      N        0.07370    0.58470    0.88682    1.000
    N16      N        0.96070    0.71410    0.71600    1.000
    O22      O        0.02690    0.43440    0.92890    1.000
    O23      O        0.98590    0.37930    0.00100    1.000
    O24      O        0.14500    0.51800    0.99090    1.000
    O25      O        0.10270    0.46170    0.06160    1.000
    O26      O        0.33970    0.37910    0.18230    1.000
    O27      O        0.45820    0.43910    0.19020    1.000
    O28      O        0.46250    0.58510    0.02800    1.000
    C64      C        0.19210    0.65580    0.93100    1.000
    H70      H        0.23920    0.68490    0.91910    1.000
    H71      H        0.21610    0.61490    0.94670    1.000
    H72      H        0.15750    0.68060    0.95610    1.000
    C65      C        0.13510    0.63580    0.88610    1.000
    C66      C        0.04240    0.58320    0.83790    1.000
    C67      C        0.97370    0.53420    0.81950    1.000
    H73      H        0.91740    0.55670    0.81990    1.000
    H74      H        0.97210    0.49450    0.84200    1.000
    H75      H        0.98730    0.51960    0.78490    1.000
    C68      C        0.01060    0.38110    0.95320    1.000
    C69      C        0.01570    0.31220    0.92590    1.000
    C70      C        0.02620    0.31220    0.87330    1.000
    H76      H        0.03090    0.35380    0.85530    1.000
    C71      C        0.38660    0.42700    0.16790    1.000
    C72      C        0.35910    0.46890    0.12140    1.000
    C73      C        0.42210    0.51250    0.09800    1.000
    H77      H        0.47660    0.51970    0.11360    1.000
    C74      C        0.40130    0.54490    0.05090    1.000
    C75      C        0.31530    0.53770    0.03110    1.000
    H78      H        0.30020    0.56040    0.00050    1.000
    C76      C        0.25240    0.49740    0.05610    1.000
    C77      C        0.27470    0.46250    0.10160    1.000
    H79      H        0.23320    0.43530    0.11850    1.000
    C78      C        0.15990    0.49200    0.03370    1.000
    C79      C        0.85000    0.62160    0.70200    1.000
    H80      H        0.89610    0.59140    0.71380    1.000
    H81      H        0.83440    0.60980    0.66700    1.000
    H82      H        0.79930    0.61640    0.72390    1.000
    C80      C        0.88120    0.69490    0.70390    1.000
    C81      C        0.07000    0.31400    0.76530    1.000
    H83      H        0.13080    0.32900    0.76720    1.000
    H84      H        0.03240    0.35180    0.77750    1.000
    C82      C        0.02600    0.28620    0.71300    1.000
    H85      H        0.06670    0.28710    0.68490    1.000
    H86      H        0.98630    0.32490    0.71040    1.000
    H87      H        0.99250    0.24430    0.71220    1.000
    C83      C        0.44990    0.61510    0.97930    1.000
    H88      H        0.40380    0.64990    0.98010    1.000
    H89      H        0.43570    0.58050    0.95330    1.000
    C84      C        0.54450    0.64890    0.96930    1.000
    H90      H        0.53820    0.69740    0.96210    1.000
    H91      H        0.57340    0.62670    0.94070    1.000
    H92      H        0.57910    0.64290    0.00010    1.000
    Zn9      Zn       0.47037    0.03572    0.45150    1.000
    Zn10     Zn       0.42655    0.16147    0.23336    1.000
    N17      N        0.36030    0.16540    0.34020    1.000
    N18      N        0.41970    0.13060    0.30816    1.000
    N19      N        0.42630    0.08470    0.38682    1.000
    N20      N        0.53930    0.21410    0.21600    1.000
    O29      O        0.47310    0.93440    0.42890    1.000
    O30      O        0.51410    0.87930    0.50100    1.000
    O31      O        0.35500    0.01800    0.49090    1.000
    O32      O        0.39730    0.96170    0.56160    1.000
    O33      O        0.16030    0.87910    0.68230    1.000
    O34      O        0.04180    0.93910    0.69020    1.000
    O35      O        0.03750    0.08510    0.52800    1.000
    C85      C        0.30790    0.15580    0.43100    1.000
    H93      H        0.26080    0.18490    0.41910    1.000
    H94      H        0.28390    0.11490    0.44670    1.000
    H95      H        0.34250    0.18060    0.45610    1.000
    C86      C        0.36490    0.13580    0.38610    1.000
    C87      C        0.45760    0.08320    0.33790    1.000
    C88      C        0.52630    0.03420    0.31950    1.000
    H96      H        0.58260    0.05670    0.31990    1.000
    H97      H        0.52790    0.99450    0.34200    1.000
    H98      H        0.51270    0.01960    0.28490    1.000
    C89      C        0.48940    0.88110    0.45320    1.000
    C90      C        0.48430    0.81220    0.42590    1.000
    C91      C        0.47380    0.81220    0.37330    1.000
    H99      H        0.46910    0.85380    0.35530    1.000
    C92      C        0.11340    0.92700    0.66790    1.000
    C93      C        0.14090    0.96890    0.62140    1.000
    C94      C        0.07790    0.01250    0.59800    1.000
    H100     H        0.02340    0.01970    0.61360    1.000
    C95      C        0.09870    0.04490    0.55090    1.000
    C96      C        0.18470    0.03770    0.53110    1.000
    H101     H        0.19980    0.06040    0.50050    1.000
    C97      C        0.24760    0.99740    0.55610    1.000
    C98      C        0.22530    0.96250    0.60160    1.000
    H102     H        0.26680    0.93530    0.61850    1.000
    C99      C        0.34010    0.99200    0.53370    1.000
    C100     C        0.65000    0.12160    0.20200    1.000
    H103     H        0.60390    0.09140    0.21380    1.000
    H104     H        0.66560    0.10980    0.16700    1.000
    H105     H        0.70070    0.11640    0.22390    1.000
    C101     C        0.61880    0.19490    0.20390    1.000
    C102     C        0.43000    0.81400    0.26530    1.000
    H106     H        0.36920    0.82900    0.26720    1.000
    H107     H        0.46760    0.85180    0.27750    1.000
    C103     C        0.47400    0.78620    0.21300    1.000
    H108     H        0.43330    0.78710    0.18490    1.000
    H109     H        0.51370    0.82490    0.21040    1.000
    H110     H        0.50750    0.74430    0.21220    1.000
    C104     C        0.05010    0.11510    0.47930    1.000
    H111     H        0.09620    0.14990    0.48010    1.000
    H112     H        0.06430    0.08050    0.45330    1.000
    C105     C        0.95550    0.14890    0.46930    1.000
    H113     H        0.96180    0.19740    0.46210    1.000
    H114     H        0.92660    0.12670    0.44070    1.000
    H115     H        0.92090    0.14290    0.50010    1.000
    Zn11     Zn       0.02963    0.96428    0.95150    1.000
    Zn12     Zn       0.07345    0.83853    0.73336    1.000
    N21      N        0.13970    0.83460    0.84020    1.000
    N22      N        0.08030    0.86940    0.80816    1.000
    N23      N        0.07370    0.91530    0.88682    1.000
    N24      N        0.96070    0.78590    0.71600    1.000
    O36      O        0.02690    0.06560    0.92890    1.000
    O37      O        0.98590    0.12070    0.00100    1.000
    O38      O        0.14500    0.98200    0.99090    1.000
    O39      O        0.10270    0.03830    0.06160    1.000
    O40      O        0.33970    0.12090    0.18230    1.000
    O41      O        0.45820    0.06090    0.19020    1.000
    O42      O        0.46250    0.91490    0.02800    1.000
    C106     C        0.19210    0.84420    0.93100    1.000
    H116     H        0.23920    0.81510    0.91910    1.000
    H117     H        0.21610    0.88510    0.94670    1.000
    H118     H        0.15750    0.81940    0.95610    1.000
    C107     C        0.13510    0.86420    0.88610    1.000
    C108     C        0.04240    0.91680    0.83790    1.000
    C109     C        0.97370    0.96580    0.81950    1.000
    H119     H        0.91740    0.94330    0.81990    1.000
    H120     H        0.97210    0.00550    0.84200    1.000
    H121     H        0.98730    0.98040    0.78490    1.000
    C110     C        0.01060    0.11890    0.95320    1.000
    C111     C        0.01570    0.18780    0.92590    1.000
    C112     C        0.02620    0.18780    0.87330    1.000
    H122     H        0.03090    0.14620    0.85530    1.000
    C113     C        0.38660    0.07300    0.16790    1.000
    C114     C        0.35910    0.03110    0.12140    1.000
    C115     C        0.42210    0.98750    0.09800    1.000
    H123     H        0.47660    0.98030    0.11360    1.000
    C116     C        0.40130    0.95510    0.05090    1.000
    C117     C        0.31530    0.96230    0.03110    1.000
    H124     H        0.30020    0.93960    0.00050    1.000
    C118     C        0.25240    0.00260    0.05610    1.000
    C119     C        0.27470    0.03750    0.10160    1.000
    H125     H        0.23320    0.06470    0.11850    1.000
    C120     C        0.15990    0.00800    0.03370    1.000
    C121     C        0.85000    0.87840    0.70200    1.000
    H126     H        0.89610    0.90860    0.71380    1.000
    H127     H        0.83440    0.89020    0.66700    1.000
    H128     H        0.79930    0.88360    0.72390    1.000
    C122     C        0.88120    0.80510    0.70390    1.000
    C123     C        0.07000    0.18600    0.76530    1.000
    H129     H        0.13080    0.17100    0.76720    1.000
    H130     H        0.03240    0.14820    0.77750    1.000
    C124     C        0.02600    0.21380    0.71300    1.000
    H131     H        0.06670    0.21290    0.68490    1.000
    H132     H        0.98630    0.17510    0.71040    1.000
    H133     H        0.99250    0.25570    0.71220    1.000
    C125     C        0.44990    0.88490    0.97930    1.000
    H134     H        0.40380    0.85010    0.98010    1.000
    H135     H        0.43570    0.91950    0.95330    1.000
    C126     C        0.54450    0.85110    0.96930    1.000
    H136     H        0.53820    0.80260    0.96210    1.000
    H137     H        0.57340    0.87330    0.94070    1.000
    H138     H        0.57910    0.85710    0.00010    1.000
    Zn13     Zn       0.52963    0.53572    0.54850    1.000
    Zn14     Zn       0.57345    0.66147    0.76664    1.000
    N25      N        0.63970    0.66540    0.65980    1.000
    N26      N        0.58030    0.63060    0.69184    1.000
    N27      N        0.57370    0.58470    0.61318    1.000
    N28      N        0.46070    0.71410    0.78400    1.000
    O43      O        0.52690    0.43440    0.57110    1.000
    O44      O        0.48590    0.37930    0.49900    1.000
    O45      O        0.64500    0.51800    0.50910    1.000
    O46      O        0.60270    0.46170    0.43840    1.000
    O47      O        0.83970    0.37910    0.31770    1.000
    O48      O        0.95820    0.43910    0.30980    1.000
    O49      O        0.96250    0.58510    0.47200    1.000
    C127     C        0.69210    0.65580    0.56900    1.000
    H139     H        0.73920    0.68490    0.58090    1.000
    H140     H        0.71610    0.61490    0.55330    1.000
    H141     H        0.65750    0.68060    0.54390    1.000
    C128     C        0.63510    0.63580    0.61390    1.000
    C129     C        0.54240    0.58320    0.66210    1.000
    C130     C        0.47370    0.53420    0.68050    1.000
    H142     H        0.41740    0.55670    0.68010    1.000
    H143     H        0.47210    0.49450    0.65800    1.000
    H144     H        0.48730    0.51960    0.71510    1.000
    C131     C        0.51060    0.38110    0.54680    1.000
    C132     C        0.51570    0.31220    0.57410    1.000
    C133     C        0.52620    0.31220    0.62670    1.000
    H145     H        0.53090    0.35380    0.64470    1.000
    C134     C        0.88660    0.42700    0.33210    1.000
    C135     C        0.85910    0.46890    0.37860    1.000
    C136     C        0.92210    0.51250    0.40200    1.000
    H146     H        0.97660    0.51970    0.38640    1.000
    C137     C        0.90130    0.54490    0.44910    1.000
    C138     C        0.81530    0.53770    0.46890    1.000
    H147     H        0.80020    0.56040    0.49950    1.000
    C139     C        0.75240    0.49740    0.44390    1.000
    C140     C        0.77470    0.46250    0.39840    1.000
    H148     H        0.73320    0.43530    0.38150    1.000
    C141     C        0.65990    0.49200    0.46630    1.000
    C142     C        0.35000    0.62160    0.79800    1.000
    H149     H        0.39610    0.59140    0.78620    1.000
    H150     H        0.33440    0.60980    0.83300    1.000
    H151     H        0.29930    0.61640    0.77610    1.000
    C143     C        0.38120    0.69490    0.79610    1.000
    C144     C        0.57000    0.31400    0.73470    1.000
    H152     H        0.63080    0.32900    0.73280    1.000
    H153     H        0.53240    0.35180    0.72250    1.000
    C145     C        0.52600    0.28620    0.78700    1.000
    H154     H        0.56670    0.28710    0.81510    1.000
    H155     H        0.48630    0.32490    0.78960    1.000
    H156     H        0.49250    0.24430    0.78780    1.000
    C146     C        0.94990    0.61510    0.52070    1.000
    H157     H        0.90380    0.64990    0.51990    1.000
    H158     H        0.93570    0.58050    0.54670    1.000
    C147     C        0.04450    0.64890    0.53070    1.000
    H159     H        0.03820    0.69740    0.53790    1.000
    H160     H        0.07340    0.62670    0.55930    1.000
    H161     H        0.07910    0.64290    0.49990    1.000
    Zn15     Zn       0.97037    0.46428    0.04850    1.000
    Zn16     Zn       0.92655    0.33853    0.26664    1.000
    N29      N        0.86030    0.33460    0.15980    1.000
    N30      N        0.91970    0.36940    0.19184    1.000
    N31      N        0.92630    0.41530    0.11318    1.000
    N32      N        0.03930    0.28590    0.28400    1.000
    O50      O        0.97310    0.56560    0.07110    1.000
    O51      O        0.01410    0.62070    0.99900    1.000
    O52      O        0.85500    0.48200    0.00910    1.000
    O53      O        0.89730    0.53830    0.93840    1.000
    O54      O        0.66030    0.62090    0.81770    1.000
    O55      O        0.54180    0.56090    0.80980    1.000
    O56      O        0.53750    0.41490    0.97200    1.000
    C148     C        0.80790    0.34420    0.06900    1.000
    H162     H        0.76080    0.31510    0.08090    1.000
    H163     H        0.78390    0.38510    0.05330    1.000
    H164     H        0.84250    0.31940    0.04390    1.000
    C149     C        0.86490    0.36420    0.11390    1.000
    C150     C        0.95760    0.41680    0.16210    1.000
    C151     C        0.02630    0.46580    0.18050    1.000
    H165     H        0.08260    0.44330    0.18010    1.000
    H166     H        0.02790    0.50550    0.15800    1.000
    H167     H        0.01270    0.48040    0.21510    1.000
    C152     C        0.98940    0.61890    0.04680    1.000
    C153     C        0.98430    0.68780    0.07410    1.000
    C154     C        0.97380    0.68780    0.12670    1.000
    H168     H        0.96910    0.64620    0.14470    1.000
    C155     C        0.61340    0.57300    0.83210    1.000
    C156     C        0.64090    0.53110    0.87860    1.000
    C157     C        0.57790    0.48750    0.90200    1.000
    H169     H        0.52340    0.48030    0.88640    1.000
    C158     C        0.59870    0.45510    0.94910    1.000
    C159     C        0.68470    0.46230    0.96890    1.000
    H170     H        0.69980    0.43960    0.99950    1.000
    C160     C        0.74760    0.50260    0.94390    1.000
    C161     C        0.72530    0.53750    0.89840    1.000
    H171     H        0.76680    0.56470    0.88150    1.000
    C162     C        0.84010    0.50800    0.96630    1.000
    C163     C        0.15000    0.37840    0.29800    1.000
    H172     H        0.10390    0.40860    0.28620    1.000
    H173     H        0.16560    0.39020    0.33300    1.000
    H174     H        0.20070    0.38360    0.27610    1.000
    C164     C        0.11880    0.30510    0.29610    1.000
    C165     C        0.93000    0.68600    0.23470    1.000
    H175     H        0.86920    0.67100    0.23280    1.000
    H176     H        0.96760    0.64820    0.22250    1.000
    C166     C        0.97400    0.71380    0.28700    1.000
    H177     H        0.93330    0.71290    0.31510    1.000
    H178     H        0.01370    0.67510    0.28960    1.000
    H179     H        0.00750    0.75570    0.28780    1.000
    C167     C        0.55010    0.38490    0.02070    1.000
    H180     H        0.59620    0.35010    0.01990    1.000
    H181     H        0.56430    0.41950    0.04670    1.000
    C168     C        0.45550    0.35110    0.03070    1.000
    H182     H        0.46180    0.30260    0.03790    1.000
    H183     H        0.42660    0.37330    0.05930    1.000
    H184     H        0.42090    0.35710    0.99990    1.000
    Zn17     Zn       0.69910    0.75000    0.68767    1.000
    N33      N        0.32920    0.75000    0.80570    1.000
    O57      O        0.64660    0.75000    0.75750    1.000
    H185     H        0.68860    0.75000    0.77930    1.000
    Zn18     Zn       0.80090    0.25000    0.18767    1.000
    N34      N        0.17080    0.25000    0.30570    1.000
    O58      O        0.85340    0.25000    0.25750    1.000
    H186     H        0.81140    0.25000    0.27930    1.000
    Zn19     Zn       0.30090    0.25000    0.31233    1.000
    N35      N        0.67080    0.25000    0.19430    1.000
    O59      O        0.35340    0.25000    0.24250    1.000
    H187     H        0.31140    0.25000    0.22070    1.000
    Zn20     Zn       0.19910    0.75000    0.81233    1.000
    N36      N        0.82920    0.75000    0.69430    1.000
    O60      O        0.14660    0.75000    0.74250    1.000
    H188     H        0.18860    0.75000    0.72070    1.000
    O61      O        0.54490    0.25000    0.70610    1.000
    C169     C        0.52980    0.25000    0.65280    1.000
    C170     C        0.50590    0.25000    0.54750    1.000
    H189     H        0.49310    0.25000    0.51220    1.000
    O62      O        0.95510    0.75000    0.20610    1.000
    C171     C        0.97020    0.75000    0.15280    1.000
    C172     C        0.99410    0.75000    0.04750    1.000
    H190     H        0.00690    0.75000    0.01220    1.000
    O63      O        0.45510    0.75000    0.29390    1.000
    C173     C        0.47020    0.75000    0.34720    1.000
    C174     C        0.49410    0.75000    0.45250    1.000
    H191     H        0.50690    0.75000    0.48780    1.000
    O64      O        0.04490    0.25000    0.79390    1.000
    C175     C        0.02980    0.25000    0.84720    1.000
    C176     C        0.00590    0.25000    0.95250    1.000
    H192     H        0.99310    0.25000    0.98780    1.000
