# CIF file generated by openbabel 3.1.0, see https://openbabel.org
data_I
_chemical_name_common 'image0'
_cell_length_a 18.035
_cell_length_b 10.513
_cell_length_c 14.293
_cell_angle_alpha 90
_cell_angle_beta 90
_cell_angle_gamma 90
_space_group_name_H-M_alt 'P 1'
_space_group_name_Hall 'P 1'
loop_
    _symmetry_equiv_pos_as_xyz
    x,y,z
loop_
    _atom_site_label
    _atom_site_type_symbol
    _atom_site_fract_x
    _atom_site_fract_y
    _atom_site_fract_z
    _atom_site_occupancy
    Ga1      Ga       0.70280    0.80790    0.64850    1.000
    Ga2      Ga       0.81500    0.62450    0.87470    1.000
    Ga3      Ga       0.89070    0.85360    0.55750    1.000
    P1       P        0.57510    0.64240    0.54440    1.000
    P2       P        0.70420    0.83950    0.87470    1.000
    P3       P        0.83070    0.61340    0.65980    1.000
    O1       O        0.75040    0.64240    0.63600    1.000
    O2       O        0.84750    0.66240    0.75790    1.000
    O3       O        0.79150    0.88810    0.61060    1.000
    O4       O        0.63280    0.83920    0.93000    1.000
    O5       O        0.60260    0.61930    0.44470    1.000
    O6       O        0.61830    0.75130    0.58840    1.000
    O7       O        0.88440    0.68540    0.59470    1.000
    O8       O        0.76140    0.75620    0.92390    1.000
    O9       O        0.68840    0.78620    0.77820    1.000
    O10      O        0.73610    0.97430    0.87160    1.000
    O11      O        0.58590    0.51860    0.59910    1.000
    O12      O        0.49430    0.68130    0.53790    1.000
    O13      O        0.84440    0.47190    0.65110    1.000
    Ga4      Ga       0.70280    0.30790    0.14850    1.000
    Ga5      Ga       0.81500    0.12450    0.37470    1.000
    Ga6      Ga       0.89070    0.35360    0.05750    1.000
    P4       P        0.57510    0.14240    0.04440    1.000
    P5       P        0.70420    0.33950    0.37470    1.000
    P6       P        0.83070    0.11340    0.15980    1.000
    O14      O        0.75040    0.14240    0.13600    1.000
    O15      O        0.84750    0.16240    0.25790    1.000
    O16      O        0.79150    0.38810    0.11060    1.000
    O17      O        0.63280    0.33920    0.43000    1.000
    O18      O        0.60260    0.11930    0.94470    1.000
    O19      O        0.61830    0.25130    0.08840    1.000
    O20      O        0.88440    0.18540    0.09470    1.000
    O21      O        0.76140    0.25620    0.42390    1.000
    O22      O        0.68840    0.28620    0.27820    1.000
    O23      O        0.73610    0.47430    0.37160    1.000
    O24      O        0.58590    0.01860    0.09910    1.000
    O25      O        0.49430    0.18130    0.03790    1.000
    O26      O        0.84440    0.97190    0.15110    1.000
    Ga7      Ga       0.29720    0.19210    0.64850    1.000
    Ga8      Ga       0.18500    0.37550    0.87470    1.000
    Ga9      Ga       0.10930    0.14640    0.55750    1.000
    P7       P        0.42490    0.35760    0.54440    1.000
    P8       P        0.29580    0.16050    0.87470    1.000
    P9       P        0.16930    0.38660    0.65980    1.000
    O27      O        0.24960    0.35760    0.63600    1.000
    O28      O        0.15250    0.33760    0.75790    1.000
    O29      O        0.20850    0.11190    0.61060    1.000
    O30      O        0.36720    0.16080    0.93000    1.000
    O31      O        0.39740    0.38070    0.44470    1.000
    O32      O        0.38170    0.24870    0.58840    1.000
    O33      O        0.11560    0.31460    0.59470    1.000
    O34      O        0.23860    0.24380    0.92390    1.000
    O35      O        0.31160    0.21380    0.77820    1.000
    O36      O        0.26390    0.02570    0.87160    1.000
    O37      O        0.41410    0.48140    0.59910    1.000
    O38      O        0.50570    0.31870    0.53790    1.000
    O39      O        0.15560    0.52810    0.65110    1.000
    Ga10     Ga       0.29720    0.69210    0.14850    1.000
    Ga11     Ga       0.18500    0.87550    0.37470    1.000
    Ga12     Ga       0.10930    0.64640    0.05750    1.000
    P10      P        0.42490    0.85760    0.04440    1.000
    P11      P        0.29580    0.66050    0.37470    1.000
    P12      P        0.16930    0.88660    0.15980    1.000
    O40      O        0.24960    0.85760    0.13600    1.000
    O41      O        0.15250    0.83760    0.25790    1.000
    O42      O        0.20850    0.61190    0.11060    1.000
    O43      O        0.36720    0.66080    0.43000    1.000
    O44      O        0.39740    0.88070    0.94470    1.000
    O45      O        0.38170    0.74870    0.08840    1.000
    O46      O        0.11560    0.81460    0.09470    1.000
    O47      O        0.23860    0.74380    0.42390    1.000
    O48      O        0.31160    0.71380    0.27820    1.000
    O49      O        0.26390    0.52570    0.37160    1.000
    O50      O        0.41410    0.98140    0.09910    1.000
    O51      O        0.50570    0.81870    0.03790    1.000
    O52      O        0.15560    0.02810    0.15110    1.000
    Ga13     Ga       0.20280    0.69210    0.64850    1.000
    Ga14     Ga       0.31500    0.87550    0.87470    1.000
    Ga15     Ga       0.39070    0.64640    0.55750    1.000
    P13      P        0.07510    0.85760    0.54440    1.000
    P14      P        0.20420    0.66050    0.87470    1.000
    P15      P        0.33070    0.88660    0.65980    1.000
    O53      O        0.25040    0.85760    0.63600    1.000
    O54      O        0.34750    0.83760    0.75790    1.000
    O55      O        0.29150    0.61190    0.61060    1.000
    O56      O        0.13280    0.66080    0.93000    1.000
    O57      O        0.10260    0.88070    0.44470    1.000
    O58      O        0.11830    0.74870    0.58840    1.000
    O59      O        0.38440    0.81460    0.59470    1.000
    O60      O        0.26140    0.74380    0.92390    1.000
    O61      O        0.18840    0.71380    0.77820    1.000
    O62      O        0.23610    0.52570    0.87160    1.000
    O63      O        0.08590    0.98140    0.59910    1.000
    O64      O        0.99430    0.81870    0.53790    1.000
    O65      O        0.34440    0.02810    0.65110    1.000
    Ga16     Ga       0.20280    0.19210    0.14850    1.000
    Ga17     Ga       0.31500    0.37550    0.37470    1.000
    Ga18     Ga       0.39070    0.14640    0.05750    1.000
    P16      P        0.07510    0.35760    0.04440    1.000
    P17      P        0.20420    0.16050    0.37470    1.000
    P18      P        0.33070    0.38660    0.15980    1.000
    O66      O        0.25040    0.35760    0.13600    1.000
    O67      O        0.34750    0.33760    0.25790    1.000
    O68      O        0.29150    0.11190    0.11060    1.000
    O69      O        0.13280    0.16080    0.43000    1.000
    O70      O        0.10260    0.38070    0.94470    1.000
    O71      O        0.11830    0.24870    0.08840    1.000
    O72      O        0.38440    0.31460    0.09470    1.000
    O73      O        0.26140    0.24380    0.42390    1.000
    O74      O        0.18840    0.21380    0.27820    1.000
    O75      O        0.23610    0.02570    0.37160    1.000
    O76      O        0.08590    0.48140    0.09910    1.000
    O77      O        0.99430    0.31870    0.03790    1.000
    O78      O        0.34440    0.52810    0.15110    1.000
    Ga19     Ga       0.79720    0.30790    0.64850    1.000
    Ga20     Ga       0.68500    0.12450    0.87470    1.000
    Ga21     Ga       0.60930    0.35360    0.55750    1.000
    P19      P        0.92490    0.14240    0.54440    1.000
    P20      P        0.79580    0.33950    0.87470    1.000
    P21      P        0.66930    0.11340    0.65980    1.000
    O79      O        0.74960    0.14240    0.63600    1.000
    O80      O        0.65250    0.16240    0.75790    1.000
    O81      O        0.70850    0.38810    0.61060    1.000
    O82      O        0.86720    0.33920    0.93000    1.000
    O83      O        0.89740    0.11930    0.44470    1.000
    O84      O        0.88170    0.25130    0.58840    1.000
    O85      O        0.61560    0.18540    0.59470    1.000
    O86      O        0.73860    0.25620    0.92390    1.000
    O87      O        0.81160    0.28620    0.77820    1.000
    O88      O        0.76390    0.47430    0.87160    1.000
    O89      O        0.91410    0.01860    0.59910    1.000
    O90      O        0.00570    0.18130    0.53790    1.000
    O91      O        0.65560    0.97190    0.65110    1.000
    Ga22     Ga       0.79720    0.80790    0.14850    1.000
    Ga23     Ga       0.68500    0.62450    0.37470    1.000
    Ga24     Ga       0.60930    0.85360    0.05750    1.000
    P22      P        0.92490    0.64240    0.04440    1.000
    P23      P        0.79580    0.83950    0.37470    1.000
    P24      P        0.66930    0.61340    0.15980    1.000
    O92      O        0.74960    0.64240    0.13600    1.000
    O93      O        0.65250    0.66240    0.25790    1.000
    O94      O        0.70850    0.88810    0.11060    1.000
    O95      O        0.86720    0.83920    0.43000    1.000
    O96      O        0.89740    0.61930    0.94470    1.000
    O97      O        0.88170    0.75130    0.08840    1.000
    O98      O        0.61560    0.68540    0.09470    1.000
    O99      O        0.73860    0.75620    0.42390    1.000
    O100     O        0.81160    0.78620    0.27820    1.000
    O101     O        0.76390    0.97430    0.37160    1.000
    O102     O        0.91410    0.51860    0.09910    1.000
    O103     O        0.00570    0.68130    0.03790    1.000
    O104     O        0.65560    0.47190    0.15110    1.000
