# CIF file generated by openbabel 3.1.0, see https://openbabel.org
data_I
_chemical_name_common 'image0'
_cell_length_a 23.532
_cell_length_b 23.532
_cell_length_c 23.181
_cell_angle_alpha 90
_cell_angle_beta 90
_cell_angle_gamma 90
_space_group_name_H-M_alt 'P 1'
_space_group_name_Hall 'P 1'
loop_
    _symmetry_equiv_pos_as_xyz
    x,y,z
loop_
    _atom_site_label
    _atom_site_type_symbol
    _atom_site_fract_x
    _atom_site_fract_y
    _atom_site_fract_z
    _atom_site_occupancy
    Ni1      Ni       0.00200    0.74059    0.13910    1.000
    Au1      Au       0.86484    0.63983    0.27670    1.000
    Au2      Au       0.13446    0.83913    0.99540    1.000
    Au3      Au       0.89489    0.59416    0.01680    1.000
    N1       N        0.94750    0.70990    0.19850    1.000
    N2       N        0.05740    0.76900    0.07590    1.000
    N3       N        0.97510    0.67330    0.08890    1.000
    N4       N        0.02800    0.80760    0.19020    1.000
    N5       N        0.06720    0.69510    0.17440    1.000
    N6       N        0.94120    0.78560    0.09950    1.000
    C1       C        0.91610    0.68380    0.22640    1.000
    C2       C        0.08660    0.79090    0.04270    1.000
    C3       C        0.94840    0.64100    0.06190    1.000
    C4       C        0.05250    0.84000    0.21650    1.000
    C5       C        0.10460    0.67670    0.19700    1.000
    C6       C        0.91080    0.81610    0.06960    1.000
    Ni2      Ni       0.50200    0.24059    0.63910    1.000
    Au4      Au       0.36484    0.13983    0.77670    1.000
    Au5      Au       0.63446    0.33913    0.49540    1.000
    Au6      Au       0.39489    0.09416    0.51680    1.000
    N7       N        0.44750    0.20990    0.69850    1.000
    N8       N        0.55740    0.26900    0.57590    1.000
    N9       N        0.47510    0.17330    0.58890    1.000
    N10      N        0.52800    0.30760    0.69020    1.000
    N11      N        0.56720    0.19510    0.67440    1.000
    N12      N        0.44120    0.28560    0.59950    1.000
    C7       C        0.41610    0.18380    0.72640    1.000
    C8       C        0.58660    0.29090    0.54270    1.000
    C9       C        0.44840    0.14100    0.56190    1.000
    C10      C        0.55250    0.34000    0.71650    1.000
    C11      C        0.60460    0.17670    0.69700    1.000
    C12      C        0.41080    0.31610    0.56960    1.000
    Ni3      Ni       0.49800    0.75941    0.63910    1.000
    Au7      Au       0.63516    0.86017    0.77670    1.000
    Au8      Au       0.36554    0.66087    0.49540    1.000
    Au9      Au       0.60511    0.90584    0.51680    1.000
    N13      N        0.55250    0.79010    0.69850    1.000
    N14      N        0.44260    0.73100    0.57590    1.000
    N15      N        0.52490    0.82670    0.58890    1.000
    N16      N        0.47200    0.69240    0.69020    1.000
    N17      N        0.43280    0.80490    0.67440    1.000
    N18      N        0.55880    0.71440    0.59950    1.000
    C13      C        0.58390    0.81620    0.72640    1.000
    C14      C        0.41340    0.70910    0.54270    1.000
    C15      C        0.55160    0.85900    0.56190    1.000
    C16      C        0.44750    0.66000    0.71650    1.000
    C17      C        0.39540    0.82330    0.69700    1.000
    C18      C        0.58920    0.68390    0.56960    1.000
    Ni4      Ni       0.99800    0.25941    0.13910    1.000
    Au10     Au       0.13516    0.36017    0.27670    1.000
    Au11     Au       0.86554    0.16087    0.99540    1.000
    Au12     Au       0.10511    0.40584    0.01680    1.000
    N19      N        0.05250    0.29010    0.19850    1.000
    N20      N        0.94260    0.23100    0.07590    1.000
    N21      N        0.02490    0.32670    0.08890    1.000
    N22      N        0.97200    0.19240    0.19020    1.000
    N23      N        0.93280    0.30490    0.17440    1.000
    N24      N        0.05880    0.21440    0.09950    1.000
    C19      C        0.08390    0.31620    0.22640    1.000
    C20      C        0.91340    0.20910    0.04270    1.000
    C21      C        0.05160    0.35900    0.06190    1.000
    C22      C        0.94750    0.16000    0.21650    1.000
    C23      C        0.89540    0.32330    0.19700    1.000
    C24      C        0.08920    0.18390    0.06960    1.000
    Ni5      Ni       0.25941    0.50200    0.38910    1.000
    Au13     Au       0.36017    0.36484    0.52670    1.000
    Au14     Au       0.16087    0.63446    0.24540    1.000
    Au15     Au       0.40584    0.39489    0.26680    1.000
    N25      N        0.29010    0.44750    0.44850    1.000
    N26      N        0.23100    0.55740    0.32590    1.000
    N27      N        0.32670    0.47510    0.33890    1.000
    N28      N        0.19240    0.52800    0.44020    1.000
    N29      N        0.30490    0.56720    0.42440    1.000
    N30      N        0.21440    0.44120    0.34950    1.000
    C25      C        0.31620    0.41610    0.47640    1.000
    C26      C        0.20910    0.58660    0.29270    1.000
    C27      C        0.35900    0.44840    0.31190    1.000
    C28      C        0.16000    0.55250    0.46650    1.000
    C29      C        0.32330    0.60460    0.44700    1.000
    C30      C        0.18390    0.41080    0.31960    1.000
    Ni6      Ni       0.75941    0.00200    0.88910    1.000
    Au16     Au       0.86017    0.86484    0.02670    1.000
    Au17     Au       0.66087    0.13446    0.74540    1.000
    Au18     Au       0.90584    0.89489    0.76680    1.000
    N31      N        0.79010    0.94750    0.94850    1.000
    N32      N        0.73100    0.05740    0.82590    1.000
    N33      N        0.82670    0.97510    0.83890    1.000
    N34      N        0.69240    0.02800    0.94020    1.000
    N35      N        0.80490    0.06720    0.92440    1.000
    N36      N        0.71440    0.94120    0.84950    1.000
    C31      C        0.81620    0.91610    0.97640    1.000
    C32      C        0.70910    0.08660    0.79270    1.000
    C33      C        0.85900    0.94840    0.81190    1.000
    C34      C        0.66000    0.05250    0.96650    1.000
    C35      C        0.82330    0.10460    0.94700    1.000
    C36      C        0.68390    0.91080    0.81960    1.000
    Ni7      Ni       0.24059    0.99800    0.88910    1.000
    Au19     Au       0.13983    0.13516    0.02670    1.000
    Au20     Au       0.33913    0.86554    0.74540    1.000
    Au21     Au       0.09416    0.10511    0.76680    1.000
    N37      N        0.20990    0.05250    0.94850    1.000
    N38      N        0.26900    0.94260    0.82590    1.000
    N39      N        0.17330    0.02490    0.83890    1.000
    N40      N        0.30760    0.97200    0.94020    1.000
    N41      N        0.19510    0.93280    0.92440    1.000
    N42      N        0.28560    0.05880    0.84950    1.000
    C37      C        0.18380    0.08390    0.97640    1.000
    C38      C        0.29090    0.91340    0.79270    1.000
    C39      C        0.14100    0.05160    0.81190    1.000
    C40      C        0.34000    0.94750    0.96650    1.000
    C41      C        0.17670    0.89540    0.94700    1.000
    C42      C        0.31610    0.08920    0.81960    1.000
    Ni8      Ni       0.74059    0.49800    0.38910    1.000
    Au22     Au       0.63983    0.63516    0.52670    1.000
    Au23     Au       0.83913    0.36554    0.24540    1.000
    Au24     Au       0.59416    0.60511    0.26680    1.000
    N43      N        0.70990    0.55250    0.44850    1.000
    N44      N        0.76900    0.44260    0.32590    1.000
    N45      N        0.67330    0.52490    0.33890    1.000
    N46      N        0.80760    0.47200    0.44020    1.000
    N47      N        0.69510    0.43280    0.42440    1.000
    N48      N        0.78560    0.55880    0.34950    1.000
    C43      C        0.68380    0.58390    0.47640    1.000
    C44      C        0.79090    0.41340    0.29270    1.000
    C45      C        0.64100    0.55160    0.31190    1.000
    C46      C        0.84000    0.44750    0.46650    1.000
    C47      C        0.67670    0.39540    0.44700    1.000
    C48      C        0.81610    0.58920    0.31960    1.000
    Ni9      Ni       0.00200    0.25941    0.63910    1.000
    Au25     Au       0.86484    0.36017    0.77670    1.000
    Au26     Au       0.13446    0.16087    0.49540    1.000
    Au27     Au       0.89489    0.40584    0.51680    1.000
    N49      N        0.94750    0.29010    0.69850    1.000
    N50      N        0.05740    0.23100    0.57590    1.000
    N51      N        0.97510    0.32670    0.58890    1.000
    N52      N        0.02800    0.19240    0.69020    1.000
    N53      N        0.06720    0.30490    0.67440    1.000
    N54      N        0.94120    0.21440    0.59950    1.000
    C49      C        0.91610    0.31620    0.72640    1.000
    C50      C        0.08660    0.20910    0.54270    1.000
    C51      C        0.94840    0.35900    0.56190    1.000
    C52      C        0.05250    0.16000    0.71650    1.000
    C53      C        0.10460    0.32330    0.69700    1.000
    C54      C        0.91080    0.18390    0.56960    1.000
    Ni10     Ni       0.50200    0.75941    0.13910    1.000
    Au28     Au       0.36484    0.86017    0.27670    1.000
    Au29     Au       0.63446    0.66087    0.99540    1.000
    Au30     Au       0.39489    0.90584    0.01680    1.000
    N55      N        0.44750    0.79010    0.19850    1.000
    N56      N        0.55740    0.73100    0.07590    1.000
    N57      N        0.47510    0.82670    0.08890    1.000
    N58      N        0.52800    0.69240    0.19020    1.000
    N59      N        0.56720    0.80490    0.17440    1.000
    N60      N        0.44120    0.71440    0.09950    1.000
    C55      C        0.41610    0.81620    0.22640    1.000
    C56      C        0.58660    0.70910    0.04270    1.000
    C57      C        0.44840    0.85900    0.06190    1.000
    C58      C        0.55250    0.66000    0.21650    1.000
    C59      C        0.60460    0.82330    0.19700    1.000
    C60      C        0.41080    0.68390    0.06960    1.000
    Ni11     Ni       0.49800    0.24059    0.13910    1.000
    Au31     Au       0.63516    0.13983    0.27670    1.000
    Au32     Au       0.36554    0.33913    0.99540    1.000
    Au33     Au       0.60511    0.09416    0.01680    1.000
    N61      N        0.55250    0.20990    0.19850    1.000
    N62      N        0.44260    0.26900    0.07590    1.000
    N63      N        0.52490    0.17330    0.08890    1.000
    N64      N        0.47200    0.30760    0.19020    1.000
    N65      N        0.43280    0.19510    0.17440    1.000
    N66      N        0.55880    0.28560    0.09950    1.000
    C61      C        0.58390    0.18380    0.22640    1.000
    C62      C        0.41340    0.29090    0.04270    1.000
    C63      C        0.55160    0.14100    0.06190    1.000
    C64      C        0.44750    0.34000    0.21650    1.000
    C65      C        0.39540    0.17670    0.19700    1.000
    C66      C        0.58920    0.31610    0.06960    1.000
    Ni12     Ni       0.99800    0.74059    0.63910    1.000
    Au34     Au       0.13516    0.63983    0.77670    1.000
    Au35     Au       0.86554    0.83913    0.49540    1.000
    Au36     Au       0.10511    0.59416    0.51680    1.000
    N67      N        0.05250    0.70990    0.69850    1.000
    N68      N        0.94260    0.76900    0.57590    1.000
    N69      N        0.02490    0.67330    0.58890    1.000
    N70      N        0.97200    0.80760    0.69020    1.000
    N71      N        0.93280    0.69510    0.67440    1.000
    N72      N        0.05880    0.78560    0.59950    1.000
    C67      C        0.08390    0.68380    0.72640    1.000
    C68      C        0.91340    0.79090    0.54270    1.000
    C69      C        0.05160    0.64100    0.56190    1.000
    C70      C        0.94750    0.84000    0.71650    1.000
    C71      C        0.89540    0.67670    0.69700    1.000
    C72      C        0.08920    0.81610    0.56960    1.000
    Ni13     Ni       0.25941    0.49800    0.88910    1.000
    Au37     Au       0.36017    0.63516    0.02670    1.000
    Au38     Au       0.16087    0.36554    0.74540    1.000
    Au39     Au       0.40584    0.60511    0.76680    1.000
    N73      N        0.29010    0.55250    0.94850    1.000
    N74      N        0.23100    0.44260    0.82590    1.000
    N75      N        0.32670    0.52490    0.83890    1.000
    N76      N        0.19240    0.47200    0.94020    1.000
    N77      N        0.30490    0.43280    0.92440    1.000
    N78      N        0.21440    0.55880    0.84950    1.000
    C73      C        0.31620    0.58390    0.97640    1.000
    C74      C        0.20910    0.41340    0.79270    1.000
    C75      C        0.35900    0.55160    0.81190    1.000
    C76      C        0.16000    0.44750    0.96650    1.000
    C77      C        0.32330    0.39540    0.94700    1.000
    C78      C        0.18390    0.58920    0.81960    1.000
    Ni14     Ni       0.75941    0.99800    0.38910    1.000
    Au40     Au       0.86017    0.13516    0.52670    1.000
    Au41     Au       0.66087    0.86554    0.24540    1.000
    Au42     Au       0.90584    0.10511    0.26680    1.000
    N79      N        0.79010    0.05250    0.44850    1.000
    N80      N        0.73100    0.94260    0.32590    1.000
    N81      N        0.82670    0.02490    0.33890    1.000
    N82      N        0.69240    0.97200    0.44020    1.000
    N83      N        0.80490    0.93280    0.42440    1.000
    N84      N        0.71440    0.05880    0.34950    1.000
    C79      C        0.81620    0.08390    0.47640    1.000
    C80      C        0.70910    0.91340    0.29270    1.000
    C81      C        0.85900    0.05160    0.31190    1.000
    C82      C        0.66000    0.94750    0.46650    1.000
    C83      C        0.82330    0.89540    0.44700    1.000
    C84      C        0.68390    0.08920    0.31960    1.000
    Ni15     Ni       0.24059    0.00200    0.38910    1.000
    Au43     Au       0.13983    0.86484    0.52670    1.000
    Au44     Au       0.33913    0.13446    0.24540    1.000
    Au45     Au       0.09416    0.89489    0.26680    1.000
    N85      N        0.20990    0.94750    0.44850    1.000
    N86      N        0.26900    0.05740    0.32590    1.000
    N87      N        0.17330    0.97510    0.33890    1.000
    N88      N        0.30760    0.02800    0.44020    1.000
    N89      N        0.19510    0.06720    0.42440    1.000
    N90      N        0.28560    0.94120    0.34950    1.000
    C85      C        0.18380    0.91610    0.47640    1.000
    C86      C        0.29090    0.08660    0.29270    1.000
    C87      C        0.14100    0.94840    0.31190    1.000
    C88      C        0.34000    0.05250    0.46650    1.000
    C89      C        0.17670    0.10460    0.44700    1.000
    C90      C        0.31610    0.91080    0.31960    1.000
    Ni16     Ni       0.74059    0.50200    0.88910    1.000
    Au46     Au       0.63983    0.36484    0.02670    1.000
    Au47     Au       0.83913    0.63446    0.74540    1.000
    Au48     Au       0.59416    0.39489    0.76680    1.000
    N91      N        0.70990    0.44750    0.94850    1.000
    N92      N        0.76900    0.55740    0.82590    1.000
    N93      N        0.67330    0.47510    0.83890    1.000
    N94      N        0.80760    0.52800    0.94020    1.000
    N95      N        0.69510    0.56720    0.92440    1.000
    N96      N        0.78560    0.44120    0.84950    1.000
    C91      C        0.68380    0.41610    0.97640    1.000
    C92      C        0.79090    0.58660    0.79270    1.000
    C93      C        0.64100    0.44840    0.81190    1.000
    C94      C        0.84000    0.55250    0.96650    1.000
    C95      C        0.67670    0.60460    0.94700    1.000
    C96      C        0.81610    0.41080    0.81960    1.000
