# CIF file generated by openbabel 3.1.0, see https://openbabel.org
data_I
_chemical_name_common 'ASALIP_clean'
_cell_length_a 7.2039
_cell_length_b 8.7309
_cell_length_c 16.234
_cell_angle_alpha 90
_cell_angle_beta 90
_cell_angle_gamma 90
_space_group_name_H-M_alt 'P 1'
_space_group_name_Hall 'P 1'
loop_
    _symmetry_equiv_pos_as_xyz
    x,y,z
loop_
    _atom_site_label
    _atom_site_type_symbol
    _atom_site_fract_x
    _atom_site_fract_y
    _atom_site_fract_z
    _atom_site_occupancy
    Zn1      Zn       0.25785    0.45765    0.95897    1.000
    Zn2      Zn       0.24215    0.54235    0.45897    1.000
    Zn3      Zn       0.74215    0.95765    0.54103    1.000
    Zn4      Zn       0.75785    0.04235    0.04103    1.000
    H1       H        0.09220    0.67420    0.61640    1.000
    H2       H        0.84330    0.52250    0.91940    1.000
    H3       H        0.80900    0.62750    0.68020    1.000
    H4       H        0.66920    0.60510    0.80860    1.000
    H5       H        0.27590    0.46920    0.77900    1.000
    H6       H        0.23400    0.46710    0.54160    1.000
    H7       H        0.03650    0.44400    0.56580    1.000
    H8       H        0.31610    0.74180    0.69210    1.000
    H9       H        0.41870    0.58690    0.67880    1.000
    H10      H        0.40780    0.32580    0.11640    1.000
    H11      H        0.65670    0.47750    0.41940    1.000
    H12      H        0.69100    0.37250    0.18020    1.000
    H13      H        0.83080    0.39490    0.30860    1.000
    H14      H        0.22410    0.53080    0.27900    1.000
    H15      H        0.26600    0.53290    0.04160    1.000
    H16      H        0.46350    0.55600    0.06580    1.000
    H17      H        0.18390    0.25820    0.19210    1.000
    H18      H        0.08130    0.41310    0.17880    1.000
    H19      H        0.90780    0.17420    0.88360    1.000
    H20      H        0.15670    0.02250    0.58060    1.000
    H21      H        0.19100    0.12750    0.81980    1.000
    H22      H        0.33080    0.10510    0.69140    1.000
    H23      H        0.72410    0.96920    0.72100    1.000
    H24      H        0.76600    0.96710    0.95840    1.000
    H25      H        0.96350    0.94400    0.93420    1.000
    H26      H        0.68390    0.24180    0.80790    1.000
    H27      H        0.58130    0.08690    0.82120    1.000
    H28      H        0.59220    0.82580    0.38360    1.000
    H29      H        0.34330    0.97750    0.08060    1.000
    H30      H        0.30900    0.87250    0.31980    1.000
    H31      H        0.16920    0.89490    0.19140    1.000
    H32      H        0.77590    0.03080    0.22100    1.000
    H33      H        0.73400    0.03290    0.45840    1.000
    H34      H        0.53650    0.05600    0.43420    1.000
    H35      H        0.81610    0.75820    0.30790    1.000
    H36      H        0.91870    0.91310    0.32120    1.000
    C1       C        0.16450    0.58730    0.63710    1.000
    C2       C        0.06210    0.55560    0.71650    1.000
    C3       C        0.89910    0.53030    0.86790    1.000
    C4       C        0.87710    0.59350    0.72530    1.000
    C5       C        0.79390    0.58050    0.80170    1.000
    C6       C        0.15370    0.50150    0.78520    1.000
    C7       C        0.33890    0.66140    0.65210    1.000
    C8       C        0.44990    0.73210    0.58290    1.000
    C9       C        0.33550    0.41270    0.13710    1.000
    C10      C        0.43790    0.44440    0.21650    1.000
    C11      C        0.60090    0.46970    0.36790    1.000
    C12      C        0.62290    0.40650    0.22530    1.000
    C13      C        0.70610    0.41950    0.30170    1.000
    C14      C        0.34630    0.49850    0.28520    1.000
    C15      C        0.16110    0.33860    0.15210    1.000
    C16      C        0.05010    0.26790    0.08290    1.000
    C17      C        0.83550    0.08730    0.86290    1.000
    C18      C        0.93790    0.05560    0.78350    1.000
    C19      C        0.10090    0.03030    0.63210    1.000
    C20      C        0.12290    0.09350    0.77470    1.000
    C21      C        0.20610    0.08050    0.69830    1.000
    C22      C        0.84630    0.00150    0.71480    1.000
    C23      C        0.66110    0.16140    0.84790    1.000
    C24      C        0.55010    0.23210    0.91710    1.000
    C25      C        0.66450    0.91270    0.36290    1.000
    C26      C        0.56210    0.94440    0.28350    1.000
    C27      C        0.39910    0.96970    0.13210    1.000
    C28      C        0.37710    0.90650    0.27470    1.000
    C29      C        0.29390    0.91950    0.19830    1.000
    C30      C        0.65370    0.99850    0.21480    1.000
    C31      C        0.83890    0.83860    0.34790    1.000
    C32      C        0.94990    0.76790    0.41710    1.000
    N1       N        0.07730    0.49280    0.86030    1.000
    N2       N        0.14230    0.48720    0.57370    1.000
    N3       N        0.42270    0.50720    0.36030    1.000
    N4       N        0.35770    0.51280    0.07370    1.000
    N5       N        0.92270    0.99280    0.63970    1.000
    N6       N        0.85770    0.98720    0.92630    1.000
    N7       N        0.57730    0.00720    0.13970    1.000
    N8       N        0.64230    0.01280    0.42630    1.000
    O1       O        0.57210    0.82410    0.60530    1.000
    O2       O        0.42100    0.69840    0.50940    1.000
    O3       O        0.92790    0.17590    0.10530    1.000
    O4       O        0.07900    0.30160    0.00940    1.000
    O5       O        0.42790    0.32410    0.89470    1.000
    O6       O        0.57900    0.19840    0.99060    1.000
    O7       O        0.07210    0.67590    0.39470    1.000
    O8       O        0.92100    0.80160    0.49060    1.000
