# CIF file generated by openbabel 3.1.0, see https://openbabel.org
data_I
_chemical_name_common 'ic800131r-file003_clean'
_cell_length_a 15.1832
_cell_length_b 15.3308
_cell_length_c 24.7499
_cell_angle_alpha 90
_cell_angle_beta 90
_cell_angle_gamma 111.338
_space_group_name_H-M_alt 'P 1'
_space_group_name_Hall 'P 1'
loop_
    _symmetry_equiv_pos_as_xyz
    x,y,z
loop_
    _atom_site_label
    _atom_site_type_symbol
    _atom_site_fract_x
    _atom_site_fract_y
    _atom_site_fract_z
    _atom_site_occupancy
    Co1      Co       0.39763    0.60971    0.02056    1.000
    Co2      Co       0.39763    0.60971    0.47944    1.000
    Co3      Co       0.60237    0.39029    0.97944    1.000
    Co4      Co       0.60237    0.39029    0.52056    1.000
    H1       H        0.47520    0.23090    0.04230    1.000
    H2       H        0.53950    0.67980    0.29350    1.000
    H3       H        0.75140    0.31060    0.48550    1.000
    H4       H        0.73840    0.44360    0.79000    1.000
    H5       H        0.46800    0.33440    0.61440    1.000
    H6       H        0.37420    0.78040    0.08420    1.000
    H7       H        0.62580    0.21960    0.91580    1.000
    H8       H        0.58860    0.06540    0.92710    1.000
    H9       H        0.94410    0.60420    0.53370    1.000
    H10      H        0.05590    0.39580    0.03370    1.000
    H11      H        0.62580    0.21960    0.58420    1.000
    H12      H        0.52480    0.76910    0.95770    1.000
    H13      H        0.56340    0.92510    0.55570    1.000
    H14      H        0.78330    0.55610    0.54000    1.000
    H15      H        0.73840    0.44360    0.71000    1.000
    H16      H        0.24860    0.68940    0.98550    1.000
    H17      H        0.37420    0.78040    0.41580    1.000
    H18      H        0.41140    0.93460    0.42710    1.000
    H19      H        0.46050    0.32020    0.70650    1.000
    H20      H        0.47520    0.23090    0.45770    1.000
    H21      H        0.73580    0.42950    0.61740    1.000
    H22      H        0.08650    0.64540    0.52830    1.000
    H23      H        0.75140    0.31060    0.01450    1.000
    H24      H        0.94410    0.60420    0.96630    1.000
    H25      H        0.53200    0.66560    0.11440    1.000
    H26      H        0.26420    0.57050    0.11740    1.000
    H27      H        0.91350    0.35460    0.02830    1.000
    H28      H        0.56340    0.92510    0.94430    1.000
    H29      H        0.21670    0.44390    0.46000    1.000
    H30      H        0.52480    0.76910    0.54230    1.000
    H31      H        0.53950    0.67980    0.20650    1.000
    H32      H        0.21670    0.44390    0.04000    1.000
    H33      H        0.73580    0.42950    0.88260    1.000
    H34      H        0.53200    0.66560    0.38560    1.000
    H35      H        0.91350    0.35460    0.47170    1.000
    H36      H        0.46800    0.33440    0.88560    1.000
    H37      H        0.26160    0.55640    0.29000    1.000
    H38      H        0.58860    0.06540    0.57290    1.000
    H39      H        0.26160    0.55640    0.21000    1.000
    H40      H        0.46050    0.32020    0.79350    1.000
    H41      H        0.08650    0.64540    0.97170    1.000
    H42      H        0.43660    0.07490    0.05570    1.000
    H43      H        0.43660    0.07490    0.44430    1.000
    H44      H        0.78330    0.55610    0.96000    1.000
    H45      H        0.41140    0.93460    0.07290    1.000
    H46      H        0.24860    0.68940    0.51450    1.000
    H47      H        0.05590    0.39580    0.46630    1.000
    H48      H        0.26420    0.57050    0.38260    1.000
    C1       C        0.52380    0.89660    0.97300    1.000
    C2       C        0.56540    0.09770    0.54840    1.000
    C3       C        0.52430    0.35490    0.86620    1.000
    C4       C        0.19040    0.48610    0.47270    1.000
    C5       C        0.47570    0.64510    0.36620    1.000
    C6       C        0.45330    0.45550    0.00180    1.000
    C7       C        0.49110    0.95130    0.00600    1.000
    C8       C        0.88900    0.39640    0.48690    1.000
    C9       C        0.49970    0.19770    0.48090    1.000
    C10      C        0.49110    0.95130    0.49400    1.000
    C11      C        0.43460    0.90230    0.04840    1.000
    C12      C        0.31880    0.58350    0.19200    1.000
    C13      C        0.41230    0.80950    0.05510    1.000
    C14      C        0.40140    0.62060    0.22010    1.000
    C15      C        0.54670    0.54450    0.99820    1.000
    C16      C        0.05220    0.51500    0.00240    1.000
    C17      C        0.68120    0.41650    0.80800    1.000
    C18      C        0.68120    0.41650    0.69200    1.000
    C19      C        0.88900    0.39640    0.01310    1.000
    C20      C        0.19040    0.48610    0.02730    1.000
    C21      C        0.48100    0.65260    0.18980    1.000
    C22      C        0.51900    0.34740    0.81020    1.000
    C23      C        0.67840    0.41300    0.63560    1.000
    C24      C        0.56540    0.09770    0.95160    1.000
    C25      C        0.80960    0.51390    0.52730    1.000
    C26      C        0.50890    0.04870    0.99400    1.000
    C27      C        0.41230    0.80950    0.44490    1.000
    C28      C        0.79080    0.37100    0.49470    1.000
    C29      C        0.05220    0.51500    0.49760    1.000
    C30      C        0.20920    0.62900    0.99470    1.000
    C31      C        0.90670    0.54400    0.97720    1.000
    C32      C        0.47620    0.10340    0.47300    1.000
    C33      C        0.40140    0.62060    0.27990    1.000
    C34      C        0.90670    0.54400    0.52280    1.000
    C35      C        0.67840    0.41300    0.86440    1.000
    C36      C        0.43460    0.90230    0.45160    1.000
    C37      C        0.20920    0.62900    0.50530    1.000
    C38      C        0.50030    0.80230    0.98090    1.000
    C39      C        0.50030    0.80230    0.51910    1.000
    C40      C        0.79080    0.37100    0.00530    1.000
    C41      C        0.45330    0.45550    0.49820    1.000
    C42      C        0.31880    0.58350    0.30800    1.000
    C43      C        0.32160    0.58700    0.13560    1.000
    C44      C        0.49970    0.19770    0.01910    1.000
    C45      C        0.58770    0.19050    0.94490    1.000
    C46      C        0.11100    0.60360    0.98690    1.000
    C47      C        0.80960    0.51390    0.97270    1.000
    C48      C        0.58770    0.19050    0.55510    1.000
    C49      C        0.94780    0.48500    0.50240    1.000
    C50      C        0.09330    0.45600    0.02280    1.000
    C51      C        0.32160    0.58700    0.36440    1.000
    C52      C        0.50890    0.04870    0.50600    1.000
    C53      C        0.09330    0.45600    0.47720    1.000
    C54      C        0.59860    0.37940    0.72010    1.000
    C55      C        0.59860    0.37940    0.77990    1.000
    C56      C        0.52430    0.35490    0.63380    1.000
    C57      C        0.47570    0.64510    0.13380    1.000
    C58      C        0.54670    0.54450    0.50180    1.000
    C59      C        0.47620    0.10340    0.02700    1.000
    C60      C        0.11100    0.60360    0.51310    1.000
    C61      C        0.51900    0.34740    0.68980    1.000
    C62      C        0.48100    0.65260    0.31020    1.000
    C63      C        0.94780    0.48500    0.99760    1.000
    C64      C        0.52380    0.89660    0.52700    1.000
    N1       N        0.39660    0.61100    0.10690    1.000
    N2       N        0.55730    0.24370    0.97850    1.000
    N3       N        0.55730    0.24370    0.52150    1.000
    N4       N        0.44270    0.75630    0.47850    1.000
    N5       N        0.75200    0.42850    0.98560    1.000
    N6       N        0.24800    0.57150    0.01440    1.000
    N7       N        0.60340    0.38900    0.60690    1.000
    N8       N        0.44270    0.75630    0.02150    1.000
    N9       N        0.60340    0.38900    0.89310    1.000
    N10      N        0.75200    0.42850    0.51440    1.000
    N11      N        0.39660    0.61100    0.39310    1.000
    N12      N        0.24800    0.57150    0.48560    1.000
    O1       O        0.38010    0.46730    0.48380    1.000
    O2       O        0.46130    0.37950    0.51130    1.000
    O3       O        0.38010    0.46730    0.01620    1.000
    O4       O        0.53870    0.62050    0.01130    1.000
    O5       O        0.46130    0.37950    0.98870    1.000
    O6       O        0.53870    0.62050    0.48870    1.000
    O7       O        0.61990    0.53270    0.51620    1.000
    O8       O        0.61990    0.53270    0.98380    1.000
