# CIF file generated by openbabel 3.1.0, see https://openbabel.org
data_I
_chemical_name_common 'image0'
_cell_length_a 69.298
_cell_length_b 69.3055
_cell_length_c 69.3013
_cell_angle_alpha 89.6494
_cell_angle_beta 92.9193
_cell_angle_gamma 90.4336
_space_group_name_H-M_alt 'P 1'
_space_group_name_Hall 'P 1'
loop_
    _symmetry_equiv_pos_as_xyz
    x,y,z
loop_
    _atom_site_label
    _atom_site_type_symbol
    _atom_site_fract_x
    _atom_site_fract_y
    _atom_site_fract_z
    _atom_site_occupancy
    Zn1      Zn       0.51906    0.48425    0.50412    1.000
    Zn2      Zn       0.51919    0.52957    0.50390    1.000
    Zn3      Zn       0.48602    0.50680    0.48031    1.000
    Zn4      Zn       0.48693    0.50673    0.52565    1.000
    O1       O        0.50280    0.50684    0.50350    1.000
    O2       O        0.54633    0.49035    0.50468    1.000
    O3       O        0.51442    0.54587    0.48165    1.000
    O4       O        0.48986    0.48466    0.46432    1.000
    O5       O        0.54642    0.52375    0.50455    1.000
    O6       O        0.51421    0.46798    0.48201    1.000
    O7       O        0.49001    0.52897    0.46410    1.000
    O8       O        0.45888    0.50668    0.48541    1.000
    O9       O        0.49141    0.48457    0.54210    1.000
    O10      O        0.45955    0.50664    0.51883    1.000
    O11      O        0.51536    0.46808    0.52633    1.000
    O12      O        0.51556    0.54566    0.52598    1.000
    O13      O        0.49154    0.52887    0.54192    1.000
    C1       C        0.44974    0.50665    0.50184    1.000
    C2       C        0.50367    0.54360    0.54030    1.000
    C3       C        0.50349    0.46998    0.54062    1.000
    C4       C        0.55584    0.50709    0.50466    1.000
    C5       C        0.50190    0.46995    0.46687    1.000
    C6       C        0.50211    0.54379    0.46652    1.000
    H1       H        0.98424    0.25845    0.26782    1.000
    C7       C        0.99490    0.24387    0.24354    1.000
    C8       C        0.00872    0.24405    0.22975    1.000
    H2       H        0.00913    0.23232    0.21961    1.000
    C9       C        0.02265    0.25854    0.22954    1.000
    C10      C        0.02258    0.27299    0.24333    1.000
    H3       H        0.03287    0.28473    0.24283    1.000
    C11      C        0.00873    0.27312    0.25709    1.000
    C12      C        0.99501    0.25848    0.25710    1.000
    C13      C        0.05630    0.26418    0.21945    1.000
    H4       H        0.06066    0.26832    0.23404    1.000
    C14      C        0.07006    0.26408    0.20565    1.000
    H5       H        0.08476    0.26839    0.20956    1.000
    C15      C        0.06518    0.25841    0.18697    1.000
    C16      C        0.04640    0.25284    0.18221    1.000
    H6       H        0.04240    0.24847    0.16759    1.000
    C17      C        0.03261    0.25288    0.19597    1.000
    H7       H        0.01795    0.24879    0.19168    1.000
    C18      C        0.03740    0.25855    0.21477    1.000
    C19      C        0.97444    0.22077    0.26126    1.000
    H8       H        0.98109    0.22568    0.27480    1.000
    C20      C        0.96035    0.20656    0.26159    1.000
    H9       H        0.95601    0.20084    0.27527    1.000
    C21      C        0.95177    0.19964    0.24460    1.000
    C22      C        0.95752    0.20695    0.22722    1.000
    H10      H        0.95082    0.20166    0.21383    1.000
    C23      C        0.97165    0.22114    0.22683    1.000
    H11      H        0.97554    0.22693    0.21303    1.000
    C24      C        0.98019    0.22829    0.24386    1.000
    C25      C        0.99108    0.29612    0.27716    1.000
    H12      H        0.97753    0.29117    0.27046    1.000
    C26      C        0.99076    0.31027    0.29111    1.000
    H13      H        0.97709    0.31590    0.29530    1.000
    C27      C        0.00775    0.31724    0.29975    1.000
    C28      C        0.02512    0.31005    0.29418    1.000
    H14      H        0.03851    0.31537    0.30092    1.000
    C29      C        0.02550    0.29591    0.28018    1.000
    H15      H        0.03928    0.29021    0.27643    1.000
    C30      C        0.00845    0.28869    0.27161    1.000
    C31      C        0.93682    0.18502    0.24508    1.000
    C32      C        0.92425    0.17282    0.24561    1.000
    C33      C        0.07958    0.25829    0.17256    1.000
    C34      C        0.09161    0.25816    0.16047    1.000
    C35      C        0.00726    0.33177    0.31458    1.000
    C36      C        0.00666    0.34390    0.32704    1.000
    C37      C        0.90774    0.14393    0.23262    1.000
    H16      H        0.91785    0.14356    0.22126    1.000
    C38      C        0.89338    0.13002    0.23336    1.000
    H17      H        0.89231    0.11881    0.22256    1.000
    C39      C        0.88039    0.13035    0.24782    1.000
    C40      C        0.88188    0.14472    0.26155    1.000
    H18      H        0.87178    0.14509    0.27292    1.000
    C41      C        0.89625    0.15864    0.26081    1.000
    H19      H        0.89732    0.16983    0.27161    1.000
    C42      C        0.90923    0.15830    0.24635    1.000
    C43      C        0.01962    0.37278    0.34354    1.000
    H20      H        0.03116    0.37328    0.33363    1.000
    C44      C        0.01874    0.38662    0.35777    1.000
    H21      H        0.02960    0.39789    0.35891    1.000
    C45      C        0.00404    0.38614    0.37050    1.000
    C46      C        0.99023    0.37169    0.36890    1.000
    H22      H        0.97867    0.37120    0.37880    1.000
    C47      C        0.99111    0.35784    0.35468    1.000
    H23      H        0.98023    0.34659    0.35351    1.000
    C48      C        0.00581    0.35833    0.34194    1.000
    C49      C        0.10490    0.24449    0.13142    1.000
    H24      H        0.09328    0.23398    0.13079    1.000
    C50      C        0.11861    0.24435    0.11758    1.000
    H25      H        0.11766    0.23372    0.10621    1.000
    C51      C        0.13352    0.25771    0.11821    1.000
    C52      C        0.13459    0.27122    0.13281    1.000
    H26      H        0.14620    0.28174    0.13343    1.000
    C53      C        0.12087    0.27137    0.14665    1.000
    H27      H        0.12182    0.28199    0.15801    1.000
    C54      C        0.10596    0.25800    0.14602    1.000
    C55      C        0.86541    0.11578    0.24857    1.000
    C56      C        0.85293    0.10350    0.24907    1.000
    C57      C        0.14786    0.25757    0.10374    1.000
    C58      C        0.15989    0.25749    0.09164    1.000
    C59      C        0.00313    0.40065    0.38531    1.000
    C60      C        0.00250    0.41290    0.39764    1.000
    C61      C        0.82313    0.09017    0.26172    1.000
    H28      H        0.82245    0.10246    0.27119    1.000
    C62      C        0.80894    0.07602    0.26195    1.000
    H29      H        0.79735    0.07755    0.27167    1.000
    C63      C        0.80960    0.06020    0.24986    1.000
    C64      C        0.82471    0.05882    0.23761    1.000
    H30      H        0.82571    0.04671    0.22798    1.000
    C65      C        0.83885    0.07299    0.23743    1.000
    H31      H        0.85054    0.07175    0.22778    1.000
    C66      C        0.83813    0.08872    0.24945    1.000
    C67      C        0.19004    0.26971    0.07889    1.000
    H32      H        0.19163    0.27938    0.09105    1.000
    C68      C        0.20382    0.26972    0.06513    1.000
    H33      H        0.21598    0.27951    0.06686    1.000
    C69      C        0.20202    0.25742    0.04943    1.000
    C70      C        0.18616    0.24511    0.04782    1.000
    H34      H        0.18428    0.23533    0.03578    1.000
    C71      C        0.17241    0.24515    0.06163    1.000
    H35      H        0.16011    0.23549    0.06019    1.000
    C72      C        0.17427    0.25744    0.07722    1.000
    C73      C        0.98966    0.42601    0.42722    1.000
    H36      H        0.98024    0.41356    0.42803    1.000
    C74      C        0.98934    0.44015    0.44123    1.000
    H37      H        0.97960    0.43845    0.45282    1.000
    C75      C        0.00139    0.45616    0.44041    1.000
    C76      C        0.01368    0.45775    0.42531    1.000
    H38      H        0.02329    0.47001    0.42419    1.000
    C77      C        0.01395    0.44360    0.41136    1.000
    H39      H        0.02364    0.44501    0.39969    1.000
    C78      C        0.00199    0.42767    0.41225    1.000
    H40      H        0.03072    0.73301    0.24063    1.000
    C79      C        0.02001    0.75894    0.22718    1.000
    C80      C        0.00584    0.77309    0.22705    1.000
    H41      H        0.00582    0.78432    0.21619    1.000
    C81      C        0.99174    0.77314    0.24060    1.000
    C82      C        0.99180    0.75877    0.25455    1.000
    H42      H        0.98169    0.75929    0.26588    1.000
    C83      C        0.00647    0.74376    0.25491    1.000
    C84      C        0.02024    0.74442    0.24112    1.000
    C85      C        0.95805    0.78384    0.24481    1.000
    H43      H        0.95386    0.76909    0.24764    1.000
    C86      C        0.94420    0.79806    0.24530    1.000
    H44      H        0.92960    0.79430    0.24876    1.000
    C87      C        0.94889    0.81702    0.24147    1.000
    C88      C        0.96754    0.82163    0.23695    1.000
    H45      H        0.97137    0.83647    0.23401    1.000
    C89      C        0.98144    0.80742    0.23641    1.000
    H46      H        0.99604    0.81152    0.23333    1.000
    C90      C        0.97686    0.78837    0.24046    1.000
    C91      C        0.05375    0.75431    0.21732    1.000
    H47      H        0.05818    0.75080    0.23210    1.000
    C92      C        0.06749    0.75430    0.20351    1.000
    H48      H        0.08225    0.75054    0.20760    1.000
    C93      C        0.06249    0.75909    0.18457    1.000
    C94      C        0.04362    0.76396    0.17957    1.000
    H49      H        0.03953    0.76765    0.16475    1.000
    C95      C        0.02984    0.76403    0.19336    1.000
    H50      H        0.01510    0.76748    0.18891    1.000
    C96      C        0.03475    0.75915    0.21241    1.000
    C97      C        0.02350    0.72079    0.27771    1.000
    H51      H        0.03728    0.72634    0.27347    1.000
    C98      C        0.02325    0.70660    0.29184    1.000
    H52      H        0.03671    0.70108    0.29813    1.000
    C99      C        0.00594    0.69959    0.29808    1.000
    C100     C        0.98887    0.70682    0.29003    1.000
    H53      H        0.97524    0.70136    0.29478    1.000
    C101     C        0.98906    0.72103    0.27596    1.000
    H54      H        0.97544    0.72619    0.26973    1.000
    C102     C        0.00638    0.72822    0.26966    1.000
    C103     C        0.07687    0.75891    0.17014    1.000
    C104     C        0.08894    0.75872    0.15809    1.000
    C105     C        0.93440    0.83184    0.24240    1.000
    C106     C        0.92214    0.84412    0.24332    1.000
    C107     C        0.00562    0.68494    0.31298    1.000
    C108     C        0.00521    0.67270    0.32551    1.000
    C109     C        0.10309    0.77206    0.12906    1.000
    H55      H        0.09199    0.78296    0.12830    1.000
    C110     C        0.11692    0.77181    0.11534    1.000
    H56      H        0.11657    0.78251    0.10392    1.000
    C111     C        0.13117    0.75796    0.11615    1.000
    C112     C        0.13146    0.74435    0.13082    1.000
    H57      H        0.14256    0.73346    0.13158    1.000
    C113     C        0.11763    0.74460    0.14454    1.000
    H58      H        0.11799    0.73390    0.15596    1.000
    C114     C        0.10338    0.75846    0.14373    1.000
    C115     C        0.99062    0.65876    0.35396    1.000
    H59      H        0.98010    0.67022    0.35331    1.000
    C116     C        0.98999    0.64480    0.36827    1.000
    H60      H        0.97899    0.64539    0.37876    1.000
    C117     C        0.00335    0.63010    0.36921    1.000
    C118     C        0.01735    0.62948    0.35573    1.000
    H61      H        0.02785    0.61801    0.35637    1.000
    C119     C        0.01797    0.64344    0.34142    1.000
    H62      H        0.02896    0.64284    0.33093    1.000
    C120     C        0.00461    0.65814    0.34048    1.000
    C121     C        0.90656    0.87392    0.23158    1.000
    H63      H        0.91699    0.87501    0.22053    1.000
    C122     C        0.89241    0.88779    0.23269    1.000
    H64      H        0.89184    0.89968    0.22251    1.000
    C123     C        0.87900    0.88653    0.24673    1.000
    C124     C        0.87986    0.87129    0.25966    1.000
    H65      H        0.86941    0.87018    0.27069    1.000
    C125     C        0.89400    0.85741    0.25855    1.000
    H66      H        0.89456    0.84551    0.26871    1.000
    C126     C        0.90741    0.85866    0.24450    1.000
    C127     C        0.14563    0.75771    0.10181    1.000
    C128     C        0.15773    0.75754    0.08978    1.000
    C129     C        0.86421    0.90103    0.24782    1.000
    C130     C        0.85189    0.91327    0.24857    1.000
    C131     C        0.00271    0.61549    0.38413    1.000
    C132     C        0.00227    0.60319    0.39658    1.000
    C133     C        0.18768    0.74508    0.07725    1.000
    H67      H        0.18910    0.73545    0.08956    1.000
    C134     C        0.20148    0.74496    0.06348    1.000
    H68      H        0.21348    0.73516    0.06536    1.000
    C135     C        0.19990    0.75722    0.04761    1.000
    C136     C        0.18424    0.76956    0.04581    1.000
    H69      H        0.18253    0.77932    0.03363    1.000
    C137     C        0.17049    0.76962    0.05960    1.000
    H70      H        0.15837    0.77932    0.05801    1.000
    C138     C        0.17213    0.75740    0.07538    1.000
    C139     C        0.82233    0.92631    0.26151    1.000
    H71      H        0.82152    0.91383    0.27088    1.000
    C140     C        0.80832    0.94043    0.26190    1.000
    H72      H        0.79673    0.93868    0.27163    1.000
    C141     C        0.80913    0.95647    0.24991    1.000
    C142     C        0.82424    0.95811    0.23763    1.000
    H73      H        0.82535    0.97040    0.22807    1.000
    C143     C        0.83819    0.94399    0.23730    1.000
    H74      H        0.84985    0.94544    0.22760    1.000
    C144     C        0.83730    0.92802    0.24919    1.000
    C145     C        0.01395    0.57271    0.41062    1.000
    H75      H        0.02361    0.57148    0.39892    1.000
    C146     C        0.01379    0.55854    0.42474    1.000
    H76      H        0.02343    0.54645    0.42374    1.000
    C147     C        0.00154    0.55990    0.43986    1.000
    C148     C        0.98943    0.57569    0.44053    1.000
    H77      H        0.97971    0.57721    0.45212    1.000
    C149     C        0.98965    0.58984    0.42635    1.000
    H78      H        0.98017    0.60210    0.42705    1.000
    C150     C        0.00192    0.58841    0.41136    1.000
    H79      H        0.02183    0.28246    0.74282    1.000
    C151     C        0.99644    0.27138    0.72788    1.000
    C152     C        0.98180    0.25764    0.72813    1.000
    H80      H        0.97048    0.25763    0.71683    1.000
    C153     C        0.98157    0.24391    0.74276    1.000
    C154     C        0.99616    0.24403    0.75718    1.000
    H81      H        0.99654    0.23287    0.76813    1.000
    C155     C        0.01085    0.25767    0.75714    1.000
    C156     C        0.01088    0.27129    0.74245    1.000
    C157     C        0.95856    0.22343    0.76030    1.000
    H82      H        0.96343    0.23015    0.77373    1.000
    C158     C        0.94439    0.20932    0.76065    1.000
    H83      H        0.93864    0.20501    0.77424    1.000
    C159     C        0.93756    0.20068    0.74376    1.000
    C160     C        0.94490    0.20635    0.72647    1.000
    H84      H        0.93967    0.19958    0.71318    1.000
    C161     C        0.95905    0.22051    0.72606    1.000
    H85      H        0.96488    0.22434    0.71238    1.000
    C162     C        0.96609    0.22913    0.74300    1.000
    C163     C        0.01395    0.29186    0.70485    1.000
    H86      H        0.02738    0.28516    0.70971    1.000
    C164     C        0.01428    0.30595    0.69068    1.000
    H87      H        0.02787    0.31026    0.68491    1.000
    C165     C        0.99739    0.31456    0.68387    1.000
    C166     C        0.98011    0.30888    0.69124    1.000
    H88      H        0.96681    0.31563    0.68603    1.000
    C167     C        0.97971    0.29474    0.70539    1.000
    H89      H        0.96604    0.29090    0.71125    1.000
    C168     C        0.99666    0.28615    0.71241    1.000
    C169     C        0.04528    0.26172    0.76839    1.000
    H90      H        0.04907    0.26453    0.75371    1.000
    C170     C        0.05974    0.26169    0.78287    1.000
    H91      H        0.07449    0.26475    0.77941    1.000
    C171     C        0.05548    0.25768    0.80170    1.000
    C172     C        0.03665    0.25368    0.80599    1.000
    H92      H        0.03321    0.25062    0.82074    1.000
    C173     C        0.02216    0.25365    0.79154    1.000
    H93      H        0.00747    0.25084    0.79536    1.000
    C174     C        0.02633    0.25768    0.77259    1.000
    C175     C        0.99788    0.32947    0.66928    1.000
    C176     C        0.99842    0.34200    0.65709    1.000
    C177     C        0.92298    0.18574    0.74427    1.000
    C178     C        0.91080    0.17318    0.74483    1.000
    C179     C        0.07059    0.25768    0.81678    1.000
    C180     C        0.08326    0.25767    0.82943    1.000
    C181     C        0.98504    0.35801    0.62785    1.000
    H94      H        0.97334    0.34760    0.62720    1.000
    C182     C        0.98580    0.37232    0.61391    1.000
    H95      H        0.97469    0.37306    0.60241    1.000
    C183     C        0.00071    0.38567    0.61462    1.000
    C184     C        0.01484    0.38463    0.62935    1.000
    H96      H        0.02655    0.39504    0.62999    1.000
    C185     C        0.01408    0.37032    0.64329    1.000
    H97      H        0.02520    0.36957    0.65478    1.000
    C186     C        0.99918    0.35696    0.64258    1.000
    C187     C        0.09758    0.24490    0.85984    1.000
    H98      H        0.08560    0.23489    0.86051    1.000
    C188     C        0.11206    0.24489    0.87430    1.000
    H99      H        0.11138    0.23487    0.88626    1.000
    C189     C        0.12741    0.25764    0.87352    1.000
    C190     C        0.12819    0.27040    0.85821    1.000
    H100     H        0.14017    0.28042    0.85753    1.000
    C191     C        0.11371    0.27041    0.84374    1.000
    H101     H        0.11439    0.28043    0.83178    1.000
    C192     C        0.09837    0.25766    0.84452    1.000
    C193     C        0.88157    0.15707    0.73145    1.000
    H102     H        0.88092    0.16745    0.71973    1.000
    C194     C        0.86765    0.14274    0.73222    1.000
    H103     H        0.85615    0.14194    0.72111    1.000
    C195     C        0.86835    0.12943    0.74715    1.000
    C196     C        0.88308    0.13054    0.76129    1.000
    H104     H        0.88371    0.12017    0.77302    1.000
    C197     C        0.89700    0.14488    0.76052    1.000
    H105     H        0.90849    0.14569    0.77164    1.000
    C198     C        0.89629    0.15819    0.74560    1.000
    C199     C        0.00149    0.40056    0.60003    1.000
    C200     C        0.00201    0.41298    0.58772    1.000
    C201     C        0.85377    0.11451    0.74794    1.000
    C202     C        0.84147    0.10207    0.74846    1.000
    C203     C        0.14251    0.25763    0.88861    1.000
    C204     C        0.15518    0.25763    0.90126    1.000
    C205     C        0.01490    0.44323    0.57488    1.000
    H106     H        0.02450    0.44441    0.58762    1.000
    C206     C        0.01515    0.45734    0.56069    1.000
    H107     H        0.02503    0.46939    0.56262    1.000
    C207     C        0.00287    0.45602    0.54432    1.000
    C208     C        0.99041    0.44033    0.54242    1.000
    H108     H        0.98063    0.43883    0.52987    1.000
    C209     C        0.99022    0.42628    0.55664    1.000
    H109     H        0.98040    0.41414    0.55501    1.000
    C210     C        0.00242    0.42768    0.57291    1.000
    C211     C        0.82861    0.07182    0.76133    1.000
    H110     H        0.84133    0.07066    0.77094    1.000
    C212     C        0.81440    0.05770    0.76156    1.000
    H111     H        0.81632    0.04566    0.77144    1.000
    C213     C        0.79805    0.05899    0.74928    1.000
    C214     C        0.79616    0.07466    0.73682    1.000
    H112     H        0.78361    0.07614    0.72704    1.000
    C215     C        0.81038    0.08872    0.73665    1.000
    H113     H        0.80877    0.10086    0.72684    1.000
    C216     C        0.82665    0.08736    0.74886    1.000
    C217     C        0.18594    0.26992    0.91525    1.000
    H114     H        0.18686    0.27958    0.90302    1.000
    C218     C        0.20044    0.26995    0.92969    1.000
    H115     H        0.21252    0.27974    0.92844    1.000
    C219     C        0.19942    0.25763    0.94543    1.000
    C220     C        0.18367    0.24531    0.94646    1.000
    H116     H        0.18242    0.23553    0.95853    1.000
    C221     C        0.16920    0.24534    0.93197    1.000
    H117     H        0.15697    0.23567    0.93290    1.000
    C222     C        0.17029    0.25763    0.91634    1.000
    H118     H        0.02006    0.73388    0.74068    1.000
    C223     C        0.00884    0.75811    0.75515    1.000
    C224     C        0.99441    0.77182    0.75489    1.000
    H119     H        0.99396    0.78192    0.76666    1.000
    C225     C        0.98000    0.77208    0.74029    1.000
    C226     C        0.98007    0.75831    0.72584    1.000
    H120     H        0.96931    0.75886    0.71403    1.000
    C227     C        0.99452    0.74455    0.72584    1.000
    C228     C        0.00880    0.74456    0.74057    1.000
    C229     C        0.94578    0.78251    0.73485    1.000
    H121     H        0.94169    0.76798    0.73069    1.000
    C230     C        0.93159    0.79641    0.73537    1.000
    H122     H        0.91676    0.79269    0.73137    1.000
    C231     C        0.93624    0.81495    0.74119    1.000
    C232     C        0.95518    0.81954    0.74635    1.000
    H123     H        0.95895    0.83406    0.75082    1.000
    C233     C        0.96938    0.80568    0.74588    1.000
    H124     H        0.98414    0.80979    0.74974    1.000
    C234     C        0.96482    0.78698    0.74023    1.000
    C235     C        0.03091    0.74074    0.77864    1.000
    H125     H        0.02480    0.72712    0.77376    1.000
    C236     C        0.04529    0.74068    0.79320    1.000
    H126     H        0.05042    0.72713    0.79925    1.000
    C237     C        0.05310    0.75780    0.80010    1.000
    C238     C        0.04640    0.77502    0.79239    1.000
    H127     H        0.05252    0.78849    0.79767    1.000
    C239     C        0.03199    0.77514    0.77786    1.000
    H128     H        0.02728    0.78882    0.77179    1.000
    C240     C        0.02412    0.75798    0.77081    1.000
    C241     C        0.01352    0.72417    0.70298    1.000
    H129     H        0.02691    0.73091    0.70811    1.000
    C242     C        0.01393    0.71018    0.68897    1.000
    H130     H        0.02754    0.70576    0.68351    1.000
    C243     C        0.99593    0.70147    0.68148    1.000
    C244     C        0.97865    0.70759    0.68836    1.000
    H131     H        0.96527    0.70110    0.68284    1.000
    C245     C        0.97818    0.72170    0.70245    1.000
    H132     H        0.96436    0.72561    0.70776    1.000
    C246     C        0.99503    0.73015    0.71021    1.000
    C247     C        0.06819    0.75771    0.81521    1.000
    C248     C        0.08085    0.75764    0.82787    1.000
    C249     C        0.92145    0.82945    0.74207    1.000
    C250     C        0.90921    0.84173    0.74296    1.000
    C251     C        0.99628    0.68647    0.66713    1.000
    C252     C        0.99686    0.67388    0.65516    1.000
    C253     C        0.09691    0.77192    0.85669    1.000
    H133     H        0.08626    0.78324    0.85615    1.000
    C254     C        0.11143    0.77186    0.87112    1.000
    H134     H        0.11210    0.78314    0.88184    1.000
    C255     C        0.12509    0.75744    0.87190    1.000
    C256     C        0.12415    0.74308    0.85816    1.000
    H135     H        0.13481    0.73176    0.85869    1.000
    C257     C        0.10963    0.74314    0.84372    1.000
    H136     H        0.10897    0.73187    0.83300    1.000
    C258     C        0.09598    0.75756    0.84295    1.000
    C259     C        0.98381    0.65747    0.62606    1.000
    H137     H        0.97206    0.66766    0.62512    1.000
    C260     C        0.98481    0.64315    0.61235    1.000
    H138     H        0.97383    0.64218    0.60073    1.000
    C261     C        0.99979    0.63009    0.61340    1.000
    C262     C        0.01375    0.63145    0.62827    1.000
    H139     H        0.02553    0.62129    0.62918    1.000
    C263     C        0.01276    0.64577    0.64198    1.000
    H140     H        0.02376    0.64677    0.65356    1.000
    C264     C        0.99779    0.65884    0.64092    1.000
    C265     C        0.89639    0.87027    0.75842    1.000
    H141     H        0.90857    0.86998    0.76880    1.000
    C266     C        0.88256    0.88446    0.75951    1.000
    H142     H        0.88398    0.89522    0.77074    1.000
    C267     C        0.86697    0.88496    0.74630    1.000
    C268     C        0.86529    0.87116    0.73201    1.000
    H143     H        0.85312    0.87146    0.72162    1.000
    C269     C        0.87911    0.85697    0.73092    1.000
    H144     H        0.87772    0.84623    0.71968    1.000
    C270     C        0.89472    0.85648    0.74412    1.000
    C271     C        0.14024    0.75739    0.88695    1.000
    C272     C        0.15294    0.75736    0.89957    1.000
    C273     C        0.85254    0.89978    0.74737    1.000
    C274     C        0.84036    0.91214    0.74809    1.000
    C275     C        0.00085    0.61521    0.59900    1.000
    C276     C        0.00159    0.60283    0.58683    1.000
    C277     C        0.18356    0.74508    0.91365    1.000
    H145     H        0.18433    0.73543    0.90152    1.000
    C278     C        0.19808    0.74504    0.92807    1.000
    H146     H        0.21003    0.73527    0.92691    1.000
    C279     C        0.19726    0.75734    0.94370    1.000
    C280     C        0.18166    0.76963    0.94461    1.000
    H147     H        0.18057    0.77940    0.95659    1.000
    C281     C        0.16718    0.76961    0.93015    1.000
    H148     H        0.15507    0.77926    0.93100    1.000
    C282     C        0.16807    0.75735    0.91464    1.000
    C283     C        0.80931    0.92549    0.73660    1.000
    H149     H        0.80749    0.91349    0.72677    1.000
    C284     C        0.79524    0.93949    0.73690    1.000
    H150     H        0.78262    0.93807    0.72718    1.000
    C285     C        0.79737    0.95502    0.74935    1.000
    C286     C        0.81382    0.95622    0.76153    1.000
    H151     H        0.81594    0.96815    0.77140    1.000
    C287     C        0.82788    0.94216    0.76117    1.000
    H152     H        0.84069    0.94327    0.77069    1.000
    C288     C        0.82568    0.92677    0.74868    1.000
    C289     C        0.01471    0.57283    0.57434    1.000
    H153     H        0.02420    0.57174    0.58717    1.000
    C290     C        0.01511    0.55878    0.56026    1.000
    H154     H        0.02498    0.54687    0.56238    1.000
    C291     C        0.00297    0.55997    0.54379    1.000
    C292     C        0.99050    0.57547    0.54166    1.000
    H155     H        0.98082    0.57687    0.52902    1.000
    C293     C        0.99016    0.58945    0.55575    1.000
    H156     H        0.98033    0.60144    0.55394    1.000
    C294     C        0.00221    0.58819    0.57214    1.000
    Zn5      Zn       0.72368    0.00689    0.76442    1.000
    Zn6      Zn       0.74515    0.98439    0.73222    1.000
    Zn7      Zn       0.74547    0.02970    0.73218    1.000
    Zn8      Zn       0.76905    0.00691    0.76531    1.000
    O14      O        0.74584    0.00697    0.74854    1.000
    O15      O        0.70718    0.98474    0.75990    1.000
    O16      O        0.74461    0.99047    0.70499    1.000
    O17      O        0.72342    0.04580    0.73584    1.000
    O18      O        0.72290    0.96822    0.73592    1.000
    O19      O        0.70747    0.02902    0.75983    1.000
    O20      O        0.74480    0.02386    0.70494    1.000
    O21      O        0.76777    0.04600    0.73696    1.000
    O22      O        0.76394    0.00683    0.79246    1.000
    O23      O        0.78530    0.02910    0.76133    1.000
    O24      O        0.73051    0.00679    0.79177    1.000
    O25      O        0.76725    0.96808    0.73707    1.000
    O26      O        0.78498    0.98478    0.76141    1.000
    C295     C        0.78290    0.04392    0.74924    1.000
    C296     C        0.78240    0.97006    0.74936    1.000
    C297     C        0.74751    0.00680    0.80159    1.000
    C298     C        0.70862    0.97015    0.74780    1.000
    C299     C        0.70910    0.04374    0.74772    1.000
    C300     C        0.74466    0.00721    0.69550    1.000
    H157     H        0.50862    0.23286    0.22961    1.000
    C301     C        0.52363    0.24382    0.25496    1.000
    C302     C        0.52343    0.25743    0.26955    1.000
    H158     H        0.53473    0.25743    0.28087    1.000
    C303     C        0.50886    0.27103    0.26974    1.000
    C304     C        0.49445    0.27092    0.25513    1.000
    H159     H        0.48356    0.28200    0.25470    1.000
    C305     C        0.49442    0.25743    0.24049    1.000
    C306     C        0.50905    0.24393    0.24052    1.000
    C307     C        0.49136    0.29118    0.29261    1.000
    H160     H        0.47791    0.28438    0.28774    1.000
    C308     C        0.49103    0.30520    0.30668    1.000
    H161     H        0.47743    0.30935    0.31235    1.000
    C309     C        0.50793    0.31395    0.31351    1.000
    C310     C        0.52523    0.30846    0.30627    1.000
    H162     H        0.53854    0.31531    0.31149    1.000
    C311     C        0.52562    0.29439    0.29222    1.000
    H163     H        0.53931    0.29071    0.28646    1.000
    C312     C        0.50866    0.28567    0.28516    1.000
    C313     C        0.54651    0.22366    0.23749    1.000
    H164     H        0.54168    0.23045    0.22404    1.000
    C314     C        0.56057    0.20965    0.23718    1.000
    H165     H        0.56626    0.20549    0.22359    1.000
    C315     C        0.56735    0.20090    0.25408    1.000
    C316     C        0.56008    0.20640    0.27137    1.000
    H166     H        0.56526    0.19956    0.28468    1.000
    C317     C        0.54603    0.22046    0.27174    1.000
    H167     H        0.54025    0.22414    0.28542    1.000
    C318     C        0.53903    0.22917    0.25477    1.000
    C319     C        0.48313    0.25358    0.20607    1.000
    H168     H        0.49780    0.25091    0.20229    1.000
    C320     C        0.46865    0.25363    0.19160    1.000
    H169     H        0.47210    0.25071    0.17687    1.000
    C321     C        0.44984    0.25747    0.19584    1.000
    C322     C        0.44558    0.26128    0.21465    1.000
    H170     H        0.43085    0.26421    0.21808    1.000
    C323     C        0.46003    0.26129    0.22915    1.000
    H171     H        0.45623    0.26395    0.24382    1.000
    C324     C        0.47896    0.25743    0.22500    1.000
    C325     C        0.58180    0.18604    0.25360    1.000
    C326     C        0.59387    0.17355    0.25304    1.000
    C327     C        0.50743    0.32882    0.32797    1.000
    C328     C        0.50684    0.34132    0.34004    1.000
    C329     C        0.43475    0.25749    0.18072    1.000
    C330     C        0.42209    0.25752    0.16805    1.000
    C331     C        0.62291    0.15734    0.26641    1.000
    H172     H        0.62363    0.16752    0.27818    1.000
    C332     C        0.63670    0.14309    0.26560    1.000
    H173     H        0.64816    0.14217    0.27673    1.000
    C333     C        0.63591    0.13003    0.25060    1.000
    C334     C        0.62123    0.13131    0.23643    1.000
    H174     H        0.62052    0.12114    0.22465    1.000
    C335     C        0.60744    0.14556    0.23725    1.000
    H175     H        0.59599    0.14650    0.22610    1.000
    C336     C        0.60823    0.15863    0.25224    1.000
    C337     C        0.39207    0.27061    0.15335    1.000
    H176     H        0.39171    0.28084    0.16504    1.000
    C338     C        0.37760    0.27064    0.13887    1.000
    H177     H        0.36595    0.28089    0.13927    1.000
    C339     C        0.37796    0.25762    0.12391    1.000
    C340     C        0.39288    0.24456    0.12350    1.000
    H178     H        0.39323    0.23433    0.11181    1.000
    C341     C        0.40735    0.24453    0.13797    1.000
    H179     H        0.41900    0.23428    0.13758    1.000
    C342     C        0.40699    0.25755    0.15294    1.000
    C343     C        0.52008    0.35747    0.36921    1.000
    H180     H        0.53178    0.34724    0.37002    1.000
    C344     C        0.51923    0.37173    0.38300    1.000
    H181     H        0.53028    0.37260    0.39455    1.000
    C345     C        0.50431    0.38486    0.38211    1.000
    C346     C        0.49025    0.38364    0.36731    1.000
    H182     H        0.47853    0.39387    0.36652    1.000
    C347     C        0.49110    0.36938    0.35351    1.000
    H183     H        0.48004    0.36850    0.34197    1.000
    C348     C        0.50601    0.35624    0.35442    1.000
    C349     C        0.65036    0.11520    0.24976    1.000
    C350     C        0.66256    0.10284    0.24919    1.000
    C351     C        0.50344    0.39970    0.39656    1.000
    C352     C        0.50285    0.41207    0.40877    1.000
    C353     C        0.36285    0.25765    0.10880    1.000
    C354     C        0.35019    0.25767    0.09614    1.000
    C355     C        0.67515    0.07280    0.23628    1.000
    H184     H        0.66239    0.07167    0.22671    1.000
    C356     C        0.68924    0.05877    0.23602    1.000
    H185     H        0.68719    0.04683    0.22616    1.000
    C357     C        0.70564    0.06002    0.24827    1.000
    C358     C        0.70768    0.07557    0.26070    1.000
    H186     H        0.72026    0.07703    0.27046    1.000
    C359     C        0.69358    0.08955    0.26091    1.000
    H187     H        0.69533    0.10158    0.27071    1.000
    C360     C        0.67727    0.08822    0.24875    1.000
    C361     C        0.48991    0.44209    0.42136    1.000
    H188     H        0.48034    0.44319    0.40860    1.000
    C362     C        0.48963    0.45614    0.43546    1.000
    H189     H        0.47976    0.46806    0.43340    1.000
    C363     C        0.50187    0.45492    0.45186    1.000
    C364     C        0.51431    0.43940    0.45391    1.000
    H190     H        0.52407    0.43798    0.46649    1.000
    C365     C        0.51454    0.42541    0.43980    1.000
    H191     H        0.52435    0.41341    0.44155    1.000
    C366     C        0.50238    0.42670    0.42348    1.000
    C367     C        0.33604    0.24546    0.06549    1.000
    H192     H        0.34816    0.23583    0.06465    1.000
    C368     C        0.32158    0.24545    0.05100    1.000
    H193     H        0.32272    0.23570    0.03901    1.000
    C369     C        0.30597    0.25771    0.05190    1.000
    C370     C        0.30509    0.26998    0.06755    1.000
    H194     H        0.29312    0.27973    0.06871    1.000
    C371     C        0.31958    0.26994    0.08200    1.000
    H195     H        0.31876    0.27956    0.09415    1.000
    C372     C        0.33509    0.25769    0.08103    1.000
    H196     H        0.53336    0.75661    0.27813    1.000
    C373     C        0.50732    0.74296    0.26719    1.000
    C374     C        0.49284    0.74310    0.25266    1.000
    H197     H        0.48118    0.73270    0.25298    1.000
    C375     C        0.49255    0.75708    0.23830    1.000
    C376     C        0.50699    0.77100    0.23852    1.000
    H198     H        0.50684    0.78192    0.22734    1.000
    C377     C        0.52161    0.77108    0.25292    1.000
    C378     C        0.52163    0.75706    0.26727    1.000
    C379     C        0.46898    0.77433    0.21624    1.000
    H199     H        0.47371    0.78794    0.22245    1.000
    C380     C        0.45445    0.77433    0.20183    1.000
    H200     H        0.44826    0.78783    0.19677    1.000
    C381     C        0.44774    0.75720    0.19391    1.000
    C382     C        0.45562    0.74004    0.20052    1.000
    H201     H        0.45048    0.72657    0.19430    1.000
    C383     C        0.47013    0.73998    0.21495    1.000
    H202     H        0.47632    0.72635    0.21959    1.000
    C384     C        0.47698    0.75714    0.22294    1.000
    C385     C        0.51265    0.73233    0.30143    1.000
    H203     H        0.51655    0.74692    0.30550    1.000
    C386     C        0.51234    0.71825    0.31565    1.000
    H204     H        0.51626    0.72192    0.33047    1.000
    C387     C        0.50688    0.69959    0.31104    1.000
    C388     C        0.50181    0.69507    0.29210    1.000
    H205     H        0.49761    0.68045    0.28837    1.000
    C389     C        0.50205    0.70910    0.27787    1.000
    H206     H        0.49830    0.70506    0.26311    1.000
    C390     C        0.50741    0.72790    0.28240    1.000
    C391     C        0.54412    0.79425    0.26991    1.000
    H207     H        0.53833    0.79015    0.28354    1.000
    C392     C        0.55827    0.80842    0.26972    1.000
    H208     H        0.56353    0.81496    0.28311    1.000
    C393     C        0.56557    0.81439    0.25250    1.000
    C394     C        0.55871    0.80603    0.23548    1.000
    H209     H        0.56445    0.81056    0.22195    1.000
    C395     C        0.54455    0.79190    0.23562    1.000
    H210     H        0.53968    0.78539    0.22209    1.000
    C396     C        0.53704    0.78592    0.25283    1.000
    C397     C        0.50635    0.68492    0.32587    1.000
    C398     C        0.50582    0.67254    0.33822    1.000
    C399     C        0.43263    0.75724    0.17883    1.000
    C400     C        0.41996    0.75726    0.16617    1.000
    C401     C        0.58017    0.82933    0.25222    1.000
    C402     C        0.59237    0.84188    0.25184    1.000
    C403     C        0.49113    0.64343    0.35149    1.000
    H211     H        0.48067    0.64336    0.33938    1.000
    C404     C        0.49047    0.62920    0.36552    1.000
    H212     H        0.47949    0.61805    0.36434    1.000
    C405     C        0.50379    0.62918    0.38102    1.000
    C406     C        0.51777    0.64347    0.38242    1.000
    H213     H        0.52824    0.64353    0.39452    1.000
    C407     C        0.51843    0.65770    0.36839    1.000
    H214     H        0.52942    0.66884    0.36957    1.000
    C408     C        0.50512    0.65772    0.35288    1.000
    C409     C        0.60632    0.87025    0.23641    1.000
    H215     H        0.59492    0.86950    0.22520    1.000
    C410     C        0.62028    0.88458    0.23581    1.000
    H216     H        0.61975    0.89500    0.22414    1.000
    C411     C        0.63490    0.88561    0.25007    1.000
    C412     C        0.63547    0.87223    0.26493    1.000
    H217     H        0.64689    0.87296    0.27613    1.000
    C413     C        0.62152    0.85790    0.26553    1.000
    H218     H        0.62206    0.84747    0.27720    1.000
    C414     C        0.60691    0.85687    0.25127    1.000
    C415     C        0.39090    0.74297    0.15044    1.000
    H219     H        0.39128    0.73171    0.16131    1.000
    C416     C        0.37643    0.74299    0.13596    1.000
    H220     H        0.36553    0.73174    0.13553    1.000
    C417     C        0.37586    0.75732    0.12203    1.000
    C418     C        0.38983    0.77164    0.12267    1.000
    H221     H        0.38944    0.78290    0.11179    1.000
    C419     C        0.40429    0.77163    0.13715    1.000
    H222     H        0.41520    0.78287    0.13758    1.000
    C420     C        0.40486    0.75729    0.15107    1.000
    C421     C        0.50314    0.61433    0.39567    1.000
    C422     C        0.50271    0.60193    0.40800    1.000
    C423     C        0.36077    0.75734    0.10693    1.000
    C424     C        0.34812    0.75735    0.09426    1.000
    C425     C        0.64950    0.90051    0.24945    1.000
    C426     C        0.66182    0.91295    0.24904    1.000
    C427     C        0.51466    0.58862    0.43905    1.000
    H223     H        0.52447    0.60077    0.44065    1.000
    C428     C        0.51452    0.57455    0.45326    1.000
    H224     H        0.52435    0.57605    0.46578    1.000
    C429     C        0.50206    0.55887    0.45139    1.000
    C430     C        0.48973    0.55755    0.43507    1.000
    H225     H        0.47984    0.54551    0.43316    1.000
    C431     C        0.48991    0.57167    0.42088    1.000
    H226     H        0.48026    0.57049    0.40819    1.000
    C432     C        0.50239    0.58723    0.42282    1.000
    C433     C        0.33412    0.76962    0.06352    1.000
    H227     H        0.34636    0.77928    0.06259    1.000
    C434     C        0.31966    0.76965    0.04904    1.000
    H228     H        0.32092    0.77943    0.03696    1.000
    C435     C        0.30389    0.75734    0.05006    1.000
    C436     C        0.30286    0.74504    0.06581    1.000
    H229     H        0.29077    0.73526    0.06707    1.000
    C437     C        0.31736    0.74507    0.08026    1.000
    H230     H        0.31643    0.73541    0.09249    1.000
    C438     C        0.33302    0.75735    0.07916    1.000
    C439     C        0.69286    0.92633    0.26098    1.000
    H231     H        0.69447    0.91418    0.27077    1.000
    C440     C        0.70707    0.94041    0.26085    1.000
    H232     H        0.71960    0.93894    0.27066    1.000
    C441     C        0.70520    0.95608    0.24840    1.000
    C442     C        0.68887    0.95737    0.23608    1.000
    H233     H        0.68695    0.96941    0.22621    1.000
    C443     C        0.67468    0.94323    0.23626    1.000
    H234     H        0.66198    0.94438    0.22662    1.000
    C444     C        0.67662    0.92768    0.24872    1.000
    Zn9      Zn       0.01896    0.50809    0.51541    1.000
    Zn10     Zn       0.98595    0.53059    0.49152    1.000
    Zn11     Zn       0.01811    0.50809    0.47004    1.000
    Zn12     Zn       0.98583    0.48527    0.49176    1.000
    O27      O        0.00221    0.50801    0.49219    1.000
    O28      O        0.01506    0.53023    0.53137    1.000
    O29      O        0.98966    0.54673    0.46929    1.000
    O30      O        0.04546    0.50819    0.47691    1.000
    O31      O        0.99074    0.54690    0.51363    1.000
    O32      O        0.04610    0.50820    0.51034    1.000
    O33      O        0.01365    0.53024    0.45357    1.000
    O34      O        0.01351    0.48596    0.45381    1.000
    O35      O        0.99058    0.46898    0.51404    1.000
    O36      O        0.98948    0.46916    0.46971    1.000
    O37      O        0.01494    0.48592    0.53162    1.000
    O38      O        0.95868    0.52449    0.49091    1.000
    O39      O        0.95859    0.49109    0.49109    1.000
    C445     C        0.00138    0.47123    0.45540    1.000
    C446     C        0.94916    0.50775    0.49095    1.000
    C447     C        0.00286    0.47108    0.52919    1.000
    C448     C        0.00301    0.54493    0.52879    1.000
    C449     C        0.05526    0.50821    0.49391    1.000
    C450     C        0.00156    0.54482    0.45502    1.000
    H235     H        0.49731    0.23082    0.77934    1.000
    C451     C        0.51084    0.24175    0.75445    1.000
    C452     C        0.51066    0.25620    0.74054    1.000
    H236     H        0.52175    0.25655    0.73016    1.000
    C453     C        0.49709    0.27078    0.74042    1.000
    C454     C        0.48360    0.27087    0.75452    1.000
    H237     H        0.47252    0.28175    0.75403    1.000
    C455     C        0.48352    0.25653    0.76859    1.000
    C456     C        0.49723    0.24202    0.76845    1.000
    C457     C        0.49326    0.30504    0.72976    1.000
    H238     H        0.49037    0.30909    0.74436    1.000
    C458     C        0.49370    0.31927    0.71569    1.000
    H239     H        0.49087    0.33408    0.71938    1.000
    C459     C        0.49790    0.31471    0.69701    1.000
    C460     C        0.50157    0.29579    0.69249    1.000
    H240     H        0.50477    0.29207    0.67788    1.000
    C461     C        0.50119    0.28154    0.70652    1.000
    H241     H        0.50382    0.26680    0.70246    1.000
    C462     C        0.49710    0.28601    0.72535    1.000
    C463     C        0.53426    0.21937    0.77132    1.000
    H242     H        0.53061    0.22520    0.78508    1.000
    C464     C        0.54831    0.20529    0.77098    1.000
    H243     H        0.55516    0.20015    0.78437    1.000
    C465     C        0.55376    0.19792    0.75364    1.000
    C466     C        0.54499    0.20467    0.73664    1.000
    H244     H        0.54910    0.19892    0.72299    1.000
    C467     C        0.53099    0.21876    0.73692    1.000
    H245     H        0.52418    0.22354    0.72337    1.000
    C468     C        0.52551    0.22633    0.75427    1.000
    C469     C        0.46050    0.23957    0.78959    1.000
    H246     H        0.46433    0.22593    0.78342    1.000
    C470     C        0.44670    0.23975    0.80334    1.000
    H247     H        0.44025    0.22633    0.80790    1.000
    C471     C        0.44103    0.25692    0.81119    1.000
    C472     C        0.44929    0.27395    0.80515    1.000
    H248     H        0.44501    0.28747    0.81127    1.000
    C473     C        0.46306    0.27384    0.79137    1.000
    H249     H        0.46951    0.28737    0.78721    1.000
    C474     C        0.46884    0.25663    0.78342    1.000
    C475     C        0.56859    0.18340    0.75319    1.000
    C476     C        0.58104    0.17127    0.75264    1.000
    C477     C        0.49856    0.32956    0.68232    1.000
    C478     C        0.49921    0.34191    0.66993    1.000
    C479     C        0.42657    0.25707    0.82554    1.000
    C480     C        0.41445    0.25721    0.83755    1.000
    C481     C        0.60862    0.15717    0.73713    1.000
    H250     H        0.60746    0.16833    0.72618    1.000
    C482     C        0.62280    0.14329    0.73631    1.000
    H251     H        0.63268    0.14367    0.72473    1.000
    C483     C        0.62439    0.12894    0.75020    1.000
    C484     C        0.61168    0.12859    0.76493    1.000
    H252     H        0.61282    0.11741    0.77586    1.000
    C485     C        0.59750    0.14247    0.76575    1.000
    H253     H        0.58760    0.14207    0.77731    1.000
    C486     C        0.59590    0.15681    0.75185    1.000
    C487     C        0.38622    0.27171    0.85163    1.000
    H254     H        0.38627    0.28286    0.84066    1.000
    C488     C        0.37237    0.27186    0.86534    1.000
    H255     H        0.36167    0.28313    0.86503    1.000
    C489     C        0.37216    0.25768    0.87943    1.000
    C490     C        0.38592    0.24335    0.87968    1.000
    H256     H        0.38587    0.23219    0.89064    1.000
    C491     C        0.39977    0.24320    0.86597    1.000
    H257     H        0.41047    0.23192    0.86628    1.000
    C492     C        0.39998    0.25738    0.85188    1.000
    C493     C        0.51361    0.35550    0.64121    1.000
    H258     H        0.52368    0.34366    0.64151    1.000
    C494     C        0.51437    0.36950    0.62694    1.000
    H259     H        0.52503    0.36854    0.61613    1.000
    C495     C        0.50155    0.38467    0.62642    1.000
    C496     C        0.48797    0.38574    0.64028    1.000
    H260     H        0.47789    0.39757    0.63997    1.000
    C497     C        0.48722    0.37175    0.65455    1.000
    H261     H        0.47654    0.37269    0.66534    1.000
    C498     C        0.50003    0.35657    0.65507    1.000
    C499     C        0.63915    0.11439    0.74935    1.000
    C500     C        0.65145    0.10212    0.74876    1.000
    C501     C        0.50228    0.39928    0.61150    1.000
    C502     C        0.50276    0.41159    0.59905    1.000
    C503     C        0.35769    0.25783    0.89377    1.000
    C504     C        0.34559    0.25791    0.90580    1.000
    C505     C        0.66509    0.07142    0.76024    1.000
    H262     H        0.65340    0.07004    0.76992    1.000
    C506     C        0.67901    0.05726    0.75999    1.000
    H263     H        0.67786    0.04501    0.76960    1.000
    C507     C        0.69413    0.05882    0.74771    1.000
    C508     C        0.69500    0.07481    0.73567    1.000
    H264     H        0.70660    0.07649    0.72594    1.000
    C509     C        0.68101    0.08896    0.73597    1.000
    H265     H        0.68187    0.10139    0.72655    1.000
    C510     C        0.66602    0.08733    0.74828    1.000
    C511     C        0.49113    0.44210    0.58504    1.000
    H266     H        0.48149    0.44333    0.59675    1.000
    C512     C        0.49130    0.45626    0.57092    1.000
    H267     H        0.48167    0.46837    0.57194    1.000
    C513     C        0.50353    0.45489    0.55578    1.000
    C514     C        0.51560    0.43909    0.55509    1.000
    H268     H        0.52531    0.43756    0.54348    1.000
    C515     C        0.51539    0.42494    0.56927    1.000
    H269     H        0.52484    0.41266    0.56855    1.000
    C516     C        0.50314    0.42638    0.58428    1.000
    C517     C        0.33286    0.24569    0.93594    1.000
    H270     H        0.34501    0.23602    0.93751    1.000
    C518     C        0.31910    0.24567    0.94973    1.000
    H271     H        0.32083    0.23589    0.96188    1.000
    C519     C        0.30341    0.25797    0.94796    1.000
    C520     C        0.30180    0.27026    0.93211    1.000
    H272     H        0.28976    0.28004    0.93025    1.000
    C521     C        0.31560    0.27023    0.91835    1.000
    H273     H        0.31416    0.27989    0.90607    1.000
    C522     C        0.33118    0.25796    0.92019    1.000
    H274     H        0.49493    0.78160    0.77700    1.000
    C523     C        0.48089    0.75593    0.76629    1.000
    C524     C        0.48105    0.74154    0.75245    1.000
    H275     H        0.47063    0.72988    0.75276    1.000
    C525     C        0.49510    0.74135    0.73890    1.000
    C526     C        0.50899    0.75585    0.73920    1.000
    H276     H        0.51940    0.75630    0.72814    1.000
    C527     C        0.50906    0.77036    0.75285    1.000
    C528     C        0.49495    0.77031    0.76634    1.000
    C529     C        0.51285    0.71855    0.71873    1.000
    H277     H        0.52636    0.72347    0.72552    1.000
    C530     C        0.51326    0.70448    0.70470    1.000
    H278     H        0.52696    0.69890    0.70056    1.000
    C531     C        0.49632    0.69754    0.69593    1.000
    C532     C        0.47891    0.70468    0.70144    1.000
    H279     H        0.46556    0.69937    0.69460    1.000
    C533     C        0.47844    0.71874    0.71552    1.000
    H280     H        0.46462    0.72439    0.71922    1.000
    C534     C        0.49543    0.72591    0.72424    1.000
    C535     C        0.47079    0.76116    0.79989    1.000
    H281     H        0.48548    0.76498    0.80435    1.000
    C536     C        0.45690    0.76118    0.81355    1.000
    H282     H        0.46085    0.76529    0.82825    1.000
    C537     C        0.43807    0.75595    0.80856    1.000
    C538     C        0.43325    0.75061    0.78977    1.000
    H283     H        0.41852    0.74654    0.78569    1.000
    C539     C        0.44711    0.75052    0.77607    1.000
    H284     H        0.44282    0.74665    0.76139    1.000
    C540     C        0.46605    0.75585    0.78096    1.000
    C541     C        0.51951    0.80472    0.75661    1.000
    H285     H        0.50487    0.80871    0.75935    1.000
    C542     C        0.53355    0.81901    0.75627    1.000
    H286     H        0.52977    0.83381    0.75903    1.000
    C543     C        0.55229    0.81453    0.75227    1.000
    C544     C        0.55691    0.79562    0.74867    1.000
    H287     H        0.57158    0.79196    0.74562    1.000
    C545     C        0.54293    0.78131    0.74896    1.000
    H288     H        0.54706    0.76658    0.74639    1.000
    C546     C        0.52405    0.78570    0.75288    1.000
    C547     C        0.42358    0.75609    0.82288    1.000
    C548     C        0.41151    0.75626    0.83493    1.000
    C549     C        0.49692    0.68306    0.68105    1.000
    C550     C        0.49761    0.67097    0.66856    1.000
    C551     C        0.56694    0.82944    0.75174    1.000
    C552     C        0.57930    0.84185    0.75121    1.000
    C553     C        0.38258    0.74275    0.84914    1.000
    H289     H        0.38191    0.73177    0.83811    1.000
    C554     C        0.36886    0.74295    0.86298    1.000
    H290     H        0.35753    0.73214    0.86269    1.000
    C555     C        0.36957    0.75690    0.87716    1.000
    C556     C        0.38412    0.77065    0.87737    1.000
    H291     H        0.38480    0.78161    0.88841    1.000
    C557     C        0.39784    0.77044    0.86353    1.000
    H292     H        0.40917    0.78124    0.86383    1.000
    C558     C        0.39713    0.75649    0.84936    1.000
    C559     C        0.60839    0.85530    0.73739    1.000
    H293     H        0.60843    0.84326    0.72756    1.000
    C560     C        0.62264    0.86935    0.73677    1.000
    H294     H        0.63376    0.86824    0.72646    1.000
    C561     C        0.62274    0.88478    0.74930    1.000
    C562     C        0.60847    0.88605    0.76243    1.000
    H295     H        0.60845    0.89808    0.77229    1.000
    C563     C        0.59422    0.87200    0.76305    1.000
    H296     H        0.58312    0.87310    0.77338    1.000
    C564     C        0.59413    0.85657    0.75053    1.000
    C565     C        0.48479    0.64212    0.65191    1.000
    H297     H        0.47316    0.64161    0.66172    1.000
    C566     C        0.48579    0.62829    0.63768    1.000
    H298     H        0.47494    0.61703    0.63643    1.000
    C567     C        0.50061    0.62879    0.62508    1.000
    C568     C        0.51441    0.64324    0.62681    1.000
    H299     H        0.52606    0.64374    0.61702    1.000
    C569     C        0.51340    0.65707    0.64104    1.000
    H300     H        0.52427    0.66832    0.64231    1.000
    C570     C        0.49859    0.65657    0.65365    1.000
    C571     C        0.35524    0.75710    0.89163    1.000
    C572     C        0.34323    0.75724    0.90375    1.000
    C573     C        0.50165    0.61428    0.61029    1.000
    C574     C        0.50237    0.60202    0.59796    1.000
    C575     C        0.63764    0.89944    0.74871    1.000
    C576     C        0.65009    0.91177    0.74832    1.000
    C577     C        0.33079    0.76966    0.93377    1.000
    H301     H        0.34311    0.77929    0.93517    1.000
    C578     C        0.31707    0.76975    0.94761    1.000
    H302     H        0.31899    0.77954    0.95963    1.000
    C579     C        0.30118    0.75748    0.94604    1.000
    C580     C        0.29932    0.74515    0.93036    1.000
    H303     H        0.28713    0.73539    0.92866    1.000
    C581     C        0.31308    0.74512    0.91657    1.000
    H304     H        0.31144    0.73542    0.90442    1.000
    C582     C        0.32887    0.75735    0.91820    1.000
    C583     C        0.51528    0.58889    0.56842    1.000
    H305     H        0.52467    0.60137    0.56758    1.000
    C584     C        0.51566    0.57472    0.55444    1.000
    H306     H        0.52539    0.57644    0.54285    1.000
    C585     C        0.50366    0.55868    0.55528    1.000
    C586     C        0.49137    0.55708    0.57039    1.000
    H307     H        0.48180    0.54480    0.57153    1.000
    C587     C        0.49106    0.57125    0.58431    1.000
    H308     H        0.48136    0.56984    0.59598    1.000
    C588     C        0.50296    0.58722    0.58339    1.000
    C589     C        0.66414    0.94226    0.76007    1.000
    H309     H        0.65243    0.94348    0.76971    1.000
    C590     C        0.67829    0.95643    0.75996    1.000
    H310     H        0.67729    0.96852    0.76961    1.000
    C591     C        0.69343    0.95507    0.74773    1.000
    C592     C        0.69410    0.93928    0.73561    1.000
    H311     H        0.70571    0.93776    0.72591    1.000
    C593     C        0.67990    0.92513    0.73578    1.000
    H312     H        0.68059    0.91286    0.72629    1.000
    C594     C        0.66488    0.92656    0.74802    1.000
    Zn13     Zn       0.25332    0.27393    0.02129    1.000
    Zn14     Zn       0.22992    0.24132    0.99817    1.000
    Zn15     Zn       0.25219    0.27403    0.97592    1.000
    Zn16     Zn       0.27530    0.24145    0.99926    1.000
    O40      O        0.25268    0.25768    0.99867    1.000
    O41      O        0.23156    0.26957    0.03700    1.000
    O42      O        0.21314    0.24556    0.97559    1.000
    O43      O        0.25242    0.30124    0.98180    1.000
    O44      O        0.21430    0.24542    0.01994    1.000
    O45      O        0.25324    0.30116    0.01524    1.000
    O46      O        0.22960    0.26975    0.95913    1.000
    O47      O        0.27394    0.26994    0.96028    1.000
    O48      O        0.29211    0.24567    0.02185    1.000
    O49      O        0.29100    0.24581    0.97749    1.000
    O50      O        0.27591    0.26975    0.03808    1.000
    O51      O        0.23578    0.21411    0.99838    1.000
    O52      O        0.26922    0.21422    0.99918    1.000
    C595     C        0.28868    0.25792    0.96268    1.000
    C596     C        0.25246    0.20472    0.99878    1.000
    C597     C        0.29052    0.25772    0.03646    1.000
    C598     C        0.21672    0.25746    0.03469    1.000
    C599     C        0.25283    0.31065    0.99848    1.000
    C600     C        0.21487    0.25765    0.96086    1.000
    Zn17     Zn       0.75774    0.98546    0.26551    1.000
    Zn18     Zn       0.77945    0.00832    0.23324    1.000
    Zn19     Zn       0.73410    0.00820    0.23238    1.000
    Zn20     Zn       0.75793    0.03079    0.26543    1.000
    O53      O        0.75730    0.00819    0.24915    1.000
    O54      O        0.77982    0.96941    0.26184    1.000
    O55      O        0.77260    0.00840    0.20589    1.000
    O56      O        0.71790    0.98599    0.23638    1.000
    O57      O        0.79572    0.98623    0.23784    1.000
    O58      O        0.73546    0.96912    0.26074    1.000
    O59      O        0.73918    0.00829    0.20523    1.000
    O60      O        0.71811    0.03029    0.23627    1.000
    O61      O        0.75851    0.02471    0.29269    1.000
    O62      O        0.73580    0.04705    0.26060    1.000
    O63      O        0.75839    0.99131    0.29275    1.000
    O64      O        0.79589    0.03051    0.23775    1.000
    O65      O        0.78015    0.04700    0.26173    1.000
    C601     C        0.72065    0.04502    0.24830    1.000
    C602     C        0.79443    0.04510    0.24984    1.000
    C603     C        0.75850    0.00797    0.30219    1.000
    C604     C        0.79413    0.97150    0.24995    1.000
    C605     C        0.72033    0.97118    0.24845    1.000
    C606     C        0.75561    0.00836    0.19608    1.000
    Zn21     Zn       0.25107    0.74100    0.01964    1.000
    Zn22     Zn       0.24988    0.74107    0.97425    1.000
    Zn23     Zn       0.22800    0.77360    0.99628    1.000
    Zn24     Zn       0.27337    0.77368    0.99734    1.000
    O66      O        0.25059    0.75734    0.99689    1.000
    O67      O        0.25081    0.71380    0.01378    1.000
    O68      O        0.22731    0.74527    0.95750    1.000
    O69      O        0.21233    0.76929    0.01806    1.000
    O70      O        0.24995    0.71384    0.98034    1.000
    O71      O        0.22934    0.74515    0.03530    1.000
    O72      O        0.21116    0.76940    0.97371    1.000
    O73      O        0.23411    0.80081    0.99635    1.000
    O74      O        0.29018    0.76942    0.01990    1.000
    O75      O        0.26755    0.80089    0.99712    1.000
    O76      O        0.27369    0.74527    0.03639    1.000
    O77      O        0.27164    0.74540    0.95853    1.000
    O78      O        0.28897    0.76953    0.97554    1.000
    C607     C        0.25088    0.81030    0.99673    1.000
    C608     C        0.28650    0.75748    0.96080    1.000
    C609     C        0.28844    0.75734    0.03463    1.000
    C610     C        0.25037    0.70436    0.99710    1.000
    C611     C        0.21462    0.75720    0.03289    1.000
    C612     C        0.21273    0.75733    0.95911    1.000
    C613     C        0.26147    0.50739    0.49803    1.000
    C614     C        0.24353    0.50747    0.49773    1.000
    C615     C        0.29356    0.49018    0.49868    1.000
    H313     H        0.28582    0.47658    0.49864    1.000
    C616     C        0.31388    0.49008    0.49903    1.000
    H314     H        0.32130    0.47642    0.49925    1.000
    C617     C        0.32473    0.50710    0.49910    1.000
    C618     C        0.31429    0.52422    0.49882    1.000
    H315     H        0.32203    0.53782    0.49886    1.000
    C619     C        0.29396    0.52431    0.49847    1.000
    H316     H        0.28654    0.53798    0.49826    1.000
    C620     C        0.28312    0.50729    0.49840    1.000
    C621     C        0.21144    0.52468    0.49709    1.000
    H317     H        0.21918    0.53828    0.49714    1.000
    C622     C        0.19112    0.52477    0.49675    1.000
    H318     H        0.18370    0.53844    0.49654    1.000
    C623     C        0.18027    0.50776    0.49667    1.000
    C624     C        0.19072    0.49064    0.49695    1.000
    H319     H        0.18298    0.47704    0.49690    1.000
    C625     C        0.21104    0.49055    0.49729    1.000
    H320     H        0.21846    0.47688    0.49750    1.000
    C626     C        0.22189    0.50757    0.49737    1.000
    C627     C        0.34638    0.50701    0.49949    1.000
    C628     C        0.36432    0.50693    0.49983    1.000
    C629     C        0.15863    0.50785    0.49628    1.000
    C630     C        0.14068    0.50793    0.49594    1.000
    C631     C        0.39614    0.50682    0.48346    1.000
    H321     H        0.38818    0.50687    0.46964    1.000
    C632     C        0.41647    0.50674    0.48391    1.000
    H322     H        0.42353    0.50674    0.47036    1.000
    C633     C        0.42765    0.50668    0.50125    1.000
    C634     C        0.41741    0.50669    0.51809    1.000
    H323     H        0.42522    0.50665    0.53200    1.000
    C635     C        0.39709    0.50676    0.51761    1.000
    H324     H        0.38989    0.50678    0.53108    1.000
    C636     C        0.38597    0.50683    0.50030    1.000
    C637     C        0.10885    0.50807    0.51231    1.000
    H325     H        0.11682    0.50804    0.52613    1.000
    C638     C        0.08852    0.50814    0.51185    1.000
    H326     H        0.08146    0.50816    0.52540    1.000
    C639     C        0.07735    0.50818    0.49451    1.000
    C640     C        0.08759    0.50814    0.47767    1.000
    H327     H        0.07979    0.50816    0.46377    1.000
    C641     C        0.10791    0.50807    0.47816    1.000
    H328     H        0.11512    0.50804    0.46469    1.000
    C642     C        0.11903    0.50803    0.49548    1.000
    C643     C        0.76145    0.50743    0.49743    1.000
    C644     C        0.74356    0.50742    0.49813    1.000
    C645     C        0.79210    0.50531    0.47925    1.000
    H329     H        0.78332    0.50359    0.46602    1.000
    C646     C        0.81236    0.50533    0.47846    1.000
    H330     H        0.81869    0.50362    0.46464    1.000
    C647     C        0.82450    0.50748    0.49498    1.000
    C648     C        0.81542    0.50963    0.51232    1.000
    H331     H        0.82420    0.51135    0.52555    1.000
    C649     C        0.79517    0.50961    0.51310    1.000
    H332     H        0.78884    0.51132    0.52692    1.000
    C650     C        0.78302    0.50745    0.49659    1.000
    C651     C        0.71291    0.50956    0.51631    1.000
    H333     H        0.72168    0.51129    0.52954    1.000
    C652     C        0.69265    0.50954    0.51710    1.000
    H334     H        0.68632    0.51126    0.53092    1.000
    C653     C        0.68050    0.50737    0.50059    1.000
    C654     C        0.68958    0.50522    0.48324    1.000
    H335     H        0.68080    0.50348    0.47002    1.000
    C655     C        0.70984    0.50523    0.48245    1.000
    H336     H        0.71616    0.50351    0.46864    1.000
    C656     C        0.72199    0.50740    0.49897    1.000
    C657     C        0.84608    0.50751    0.49414    1.000
    C658     C        0.86397    0.50753    0.49345    1.000
    C659     C        0.65893    0.50735    0.50142    1.000
    C660     C        0.64104    0.50732    0.50211    1.000
    C661     C        0.89624    0.52465    0.49218    1.000
    H337     H        0.88875    0.53827    0.49237    1.000
    C662     C        0.91651    0.52472    0.49152    1.000
    H338     H        0.92398    0.53845    0.49125    1.000
    C663     C        0.92711    0.50768    0.49128    1.000
    C664     C        0.91635    0.49058    0.49171    1.000
    H339     H        0.92370    0.47688    0.49161    1.000
    C665     C        0.89608    0.49055    0.49237    1.000
    H340     H        0.88846    0.47689    0.49273    1.000
    C666     C        0.88554    0.50758    0.49265    1.000
    C667     C        0.60876    0.49020    0.50338    1.000
    H341     H        0.61625    0.47658    0.50316    1.000
    C668     C        0.58850    0.49013    0.50405    1.000
    H342     H        0.58102    0.47639    0.50429    1.000
    C669     C        0.57790    0.50717    0.50431    1.000
    C670     C        0.58866    0.52427    0.50389    1.000
    H343     H        0.58131    0.53796    0.50402    1.000
    C671     C        0.60892    0.52430    0.50323    1.000
    H344     H        0.61655    0.53796    0.50289    1.000
    C672     C        0.61946    0.50728    0.50293    1.000
    C673     C        0.25164    0.99820    0.99776    1.000
    C674     C        0.25171    0.01612    0.99795    1.000
    C675     C        0.25155    0.96577    0.01461    1.000
    H345     H        0.25161    0.97318    0.02829    1.000
    C676     C        0.25147    0.94547    0.01448    1.000
    H346     H        0.25147    0.93772    0.02806    1.000
    C677     C        0.25140    0.93507    0.99733    1.000
    C678     C        0.25141    0.94590    0.98033    1.000
    H347     H        0.25136    0.93849    0.96665    1.000
    C679     C        0.25149    0.96620    0.98046    1.000
    H348     H        0.25149    0.97395    0.96688    1.000
    C680     C        0.25156    0.97660    0.99761    1.000
    C681     C        0.25168    0.04869    0.98128    1.000
    H349     H        0.25153    0.04126    0.96761    1.000
    C682     C        0.25175    0.06903    0.98122    1.000
    H350     H        0.25164    0.07663    0.96755    1.000
    C683     C        0.25194    0.07962    0.99824    1.000
    C684     C        0.25205    0.06807    0.01611    1.000
    H351     H        0.25220    0.07532    0.02988    1.000
    C685     C        0.25198    0.04782    0.01562    1.000
    H352     H        0.25207    0.03983    0.02906    1.000
    C686     C        0.25179    0.03772    0.99827    1.000
    C687     C        0.25132    0.91346    0.99720    1.000
    C688     C        0.25125    0.89555    0.99709    1.000
    C689     C        0.25197    0.10123    0.99831    1.000
    C690     C        0.25196    0.11914    0.99839    1.000
    C691     C        0.26819    0.86338    0.99731    1.000
    H353     H        0.28187    0.87100    0.99767    1.000
    C692     C        0.26812    0.84308    0.99722    1.000
    H354     H        0.28181    0.83570    0.99751    1.000
    C693     C        0.25098    0.83235    0.99678    1.000
    C694     C        0.23394    0.84297    0.99643    1.000
    H355     H        0.22018    0.83550    0.99609    1.000
    C695     C        0.23404    0.86327    0.99652    1.000
    H356     H        0.22043    0.87080    0.99625    1.000
    C696     C        0.25116    0.87395    0.99697    1.000
    C697     C        0.23462    0.15101    0.99814    1.000
    H357     H        0.22108    0.14314    0.99777    1.000
    C698     C        0.23433    0.17126    0.99823    1.000
    H358     H        0.22058    0.17852    0.99794    1.000
    C699     C        0.25234    0.18270    0.99872    1.000
    C700     C        0.26926    0.17189    0.99907    1.000
    H359     H        0.28308    0.17924    0.99943    1.000
    C701     C        0.26896    0.15156    0.99896    1.000
    H360     H        0.28256    0.14400    0.99925    1.000
    C702     C        0.25185    0.14074    0.99850    1.000
    C703     C        0.25151    0.51647    0.99777    1.000
    C704     C        0.25164    0.49855    0.99783    1.000
    C705     C        0.25107    0.54874    0.98058    1.000
    H361     H        0.25094    0.54120    0.96697    1.000
    C706     C        0.25093    0.56903    0.98052    1.000
    H362     H        0.25070    0.57665    0.96685    1.000
    C707     C        0.25108    0.57960    0.99756    1.000
    C708     C        0.25137    0.56893    0.01468    1.000
    H363     H        0.25149    0.57647    0.02829    1.000
    C709     C        0.25151    0.54864    0.01475    1.000
    H364     H        0.25174    0.54102    0.02841    1.000
    C710     C        0.25136    0.53807    0.99770    1.000
    C711     C        0.25216    0.46628    0.01502    1.000
    H365     H        0.25234    0.47382    0.02864    1.000
    C712     C        0.25230    0.44598    0.01509    1.000
    H366     H        0.25259    0.43836    0.02876    1.000
    C713     C        0.25208    0.43541    0.99804    1.000
    C714     C        0.25171    0.44608    0.98092    1.000
    H367     H        0.25153    0.43854    0.96731    1.000
    C715     C        0.25157    0.46638    0.98085    1.000
    H368     H        0.25128    0.47399    0.96719    1.000
    C716     C        0.25179    0.47695    0.99790    1.000
    C717     C        0.25093    0.60121    0.99749    1.000
    C718     C        0.25081    0.61912    0.99743    1.000
    C719     C        0.25223    0.41381    0.99812    1.000
    C720     C        0.25236    0.39589    0.99818    1.000
    C721     C        0.25104    0.65131    0.01439    1.000
    H369     H        0.25144    0.64370    0.02806    1.000
    C722     C        0.25092    0.67160    0.01433    1.000
    H370     H        0.25124    0.67900    0.02802    1.000
    C723     C        0.25043    0.68232    0.99719    1.000
    C724     C        0.25005    0.67168    0.98014    1.000
    H371     H        0.24966    0.67913    0.96639    1.000
    C725     C        0.25016    0.65138    0.98024    1.000
    H372     H        0.24986    0.64383    0.96662    1.000
    C726     C        0.25067    0.64072    0.99735    1.000
    C727     C        0.25215    0.36371    0.98122    1.000
    H373     H        0.25177    0.37133    0.96755    1.000
    C728     C        0.25227    0.34342    0.98127    1.000
    H374     H        0.25197    0.33603    0.96757    1.000
    C729     C        0.25276    0.33269    0.99840    1.000
    C730     C        0.25311    0.34333    0.01546    1.000
    H375     H        0.25349    0.33587    0.02921    1.000
    C731     C        0.25299    0.36363    0.01537    1.000
    H376     H        0.25328    0.37117    0.02898    1.000
    C732     C        0.25250    0.37429    0.99826    1.000
    C733     C        0.75138    0.00754    0.98987    1.000
    C734     C        0.75169    0.00762    0.00781    1.000
    C735     C        0.75103    0.02446    0.95740    1.000
    H377     H        0.75134    0.03813    0.96485    1.000
    C736     C        0.75067    0.02437    0.93708    1.000
    H378     H        0.75071    0.03797    0.92937    1.000
    C737     C        0.75027    0.00725    0.92661    1.000
    C738     C        0.75024    0.99023    0.93742    1.000
    H379     H        0.74993    0.97657    0.92998    1.000
    C739     C        0.75060    0.99033    0.95775    1.000
    H380     H        0.75056    0.97672    0.96546    1.000
    C740     C        0.75100    0.00744    0.96822    1.000
    C741     C        0.75196    0.99069    0.04027    1.000
    H381     H        0.75160    0.97703    0.03283    1.000
    C742     C        0.75232    0.99078    0.06059    1.000
    H382     H        0.75223    0.97718    0.06831    1.000
    C743     C        0.75281    0.00790    0.07107    1.000
    C744     C        0.75291    0.02492    0.06026    1.000
    H383     H        0.75329    0.03858    0.06770    1.000
    C745     C        0.75255    0.02483    0.03993    1.000
    H384     H        0.75266    0.03843    0.03222    1.000
    C746     C        0.75207    0.00771    0.02945    1.000
    C747     C        0.74987    0.00716    0.90496    1.000
    C748     C        0.74952    0.00708    0.88701    1.000
    C749     C        0.75321    0.00799    0.09272    1.000
    C750     C        0.75356    0.00807    0.11066    1.000
    C751     C        0.76588    0.00696    0.85519    1.000
    H385     H        0.77971    0.00701    0.86315    1.000
    C752     C        0.76543    0.00689    0.83486    1.000
    H386     H        0.77898    0.00688    0.82780    1.000
    C753     C        0.74809    0.00683    0.82368    1.000
    C754     C        0.73125    0.00685    0.83392    1.000
    H387     H        0.71735    0.00682    0.82612    1.000
    C755     C        0.73174    0.00693    0.85424    1.000
    H388     H        0.71827    0.00694    0.86144    1.000
    C756     C        0.74905    0.00699    0.86537    1.000
    C757     C        0.77135    0.00827    0.14343    1.000
    H389     H        0.78482    0.00828    0.13622    1.000
    C758     C        0.77185    0.00834    0.16375    1.000
    H390     H        0.78576    0.00841    0.17154    1.000
    C759     C        0.75501    0.00832    0.17400    1.000
    C760     C        0.73767    0.00823    0.16282    1.000
    H391     H        0.72412    0.00820    0.16989    1.000
    C761     C        0.73721    0.00815    0.14249    1.000
    H392     H        0.72338    0.00807    0.13454    1.000
    C762     C        0.75404    0.00816    0.13231    1.000
    C763     C        0.75193    0.00760    0.48990    1.000
    C764     C        0.75122    0.00758    0.50779    1.000
    C765     C        0.77027    0.00747    0.45925    1.000
    H393     H        0.78361    0.00733    0.46803    1.000
    C766     C        0.77106    0.00750    0.43900    1.000
    H394     H        0.78500    0.00737    0.43268    1.000
    C767     C        0.75441    0.00768    0.42685    1.000
    C768     C        0.73691    0.00784    0.43592    1.000
    H395     H        0.72357    0.00799    0.42714    1.000
    C769     C        0.73612    0.00781    0.45618    1.000
    H396     H        0.72218    0.00794    0.46250    1.000
    C770     C        0.75277    0.00763    0.46833    1.000
    C771     C        0.73288    0.00764    0.53844    1.000
    H397     H        0.71954    0.00773    0.52966    1.000
    C772     C        0.73209    0.00761    0.55869    1.000
    H398     H        0.71815    0.00769    0.56502    1.000
    C773     C        0.74875    0.00750    0.57085    1.000
    C774     C        0.76624    0.00741    0.56177    1.000
    H399     H        0.77958    0.00732    0.57055    1.000
    C775     C        0.76703    0.00744    0.54151    1.000
    H400     H        0.78097    0.00736    0.53519    1.000
    C776     C        0.75037    0.00755    0.52936    1.000
    C777     C        0.75525    0.00772    0.40527    1.000
    C778     C        0.75594    0.00775    0.38739    1.000
    C779     C        0.74790    0.00747    0.59242    1.000
    C780     C        0.74721    0.00743    0.61031    1.000
    C781     C        0.75721    0.02488    0.35513    1.000
    H401     H        0.75699    0.03849    0.36264    1.000
    C782     C        0.75788    0.02494    0.33487    1.000
    H402     H        0.75813    0.03868    0.32741    1.000
    C783     C        0.75815    0.00790    0.32424    1.000
    C784     C        0.75774    0.99080    0.33498    1.000
    H403     H        0.75786    0.97711    0.32762    1.000
    C785     C        0.75707    0.99077    0.35525    1.000
    H404     H        0.75673    0.97712    0.36285    1.000
    C786     C        0.75676    0.00780    0.36581    1.000
    C787     C        0.74612    0.02441    0.64245    1.000
    H405     H        0.74649    0.03807    0.63485    1.000
    C788     C        0.74545    0.02438    0.66271    1.000
    H406     H        0.74535    0.03807    0.67008    1.000
    C789     C        0.74501    0.00728    0.67345    1.000
    C790     C        0.74524    0.99024    0.66282    1.000
    H407     H        0.74497    0.97650    0.67027    1.000
    C791     C        0.74591    0.99031    0.64255    1.000
    H408     H        0.74610    0.97669    0.63504    1.000
    C792     C        0.74639    0.00739    0.63188    1.000
