# CIF file generated by openbabel 3.1.0, see https://openbabel.org
data_I
_chemical_name_common 'image0'
_cell_length_a 13.085
_cell_length_b 14.106
_cell_length_c 18.175
_cell_angle_alpha 90
_cell_angle_beta 90
_cell_angle_gamma 90
_space_group_name_H-M_alt 'P 1'
_space_group_name_Hall 'P 1'
loop_
    _symmetry_equiv_pos_as_xyz
    x,y,z
loop_
    _atom_site_label
    _atom_site_type_symbol
    _atom_site_fract_x
    _atom_site_fract_y
    _atom_site_fract_z
    _atom_site_occupancy
    Mn1      Mn       0.24024    0.48619    0.42018    1.000
    Mn2      Mn       0.28306    0.51069    0.58329    1.000
    O1       O        0.72500    0.12754    0.41538    1.000
    O2       O        0.71150    0.14952    0.53558    1.000
    O3       O        0.42730    0.45670    0.54645    1.000
    O4       O        0.39489    0.45220    0.42786    1.000
    C1       C        0.70880    0.17850    0.47020    1.000
    C2       C        0.45330    0.44160    0.48090    1.000
    C3       C        0.74470    0.31540    0.39000    1.000
    H1       H        0.72600    0.27750    0.34830    1.000
    H2       H        0.81650    0.30840    0.39950    1.000
    H3       H        0.72970    0.38080    0.38000    1.000
    C4       C        0.68440    0.28320    0.45690    1.000
    C5       C        0.71340    0.34410    0.52300    1.000
    H4       H        0.70830    0.30750    0.56800    1.000
    H5       H        0.78300    0.36700    0.51810    1.000
    C6       C        0.63890    0.42650    0.52440    1.000
    H6       H        0.67440    0.48550    0.51460    1.000
    H7       H        0.60650    0.43100    0.57220    1.000
    C7       C        0.55920    0.40810    0.46530    1.000
    H8       H        0.58210    0.44120    0.42090    1.000
    C8       C        0.56710    0.30060    0.44920    1.000
    C9       C        0.52450    0.27360    0.37300    1.000
    H9       H        0.53150    0.20650    0.36570    1.000
    H10      H        0.56190    0.30680    0.33560    1.000
    H11      H        0.45360    0.29070    0.37030    1.000
    C10      C        0.50580    0.24460    0.50500    1.000
    H12      H        0.51180    0.17810    0.49450    1.000
    H13      H        0.43530    0.26300    0.50240    1.000
    H14      H        0.53150    0.25700    0.55350    1.000
    O5       O        0.09796    0.53080    0.46069    1.000
    O6       O        0.13054    0.56220    0.57745    1.000
    O7       O        0.78500    0.86842    0.58180    1.000
    O8       O        0.82630    0.85958    0.46427    1.000
    C11      C        0.07260    0.55980    0.52250    1.000
    C12      C        0.81540    0.82450    0.52690    1.000
    C13      C        0.91730    0.52640    0.59350    1.000
    H15      H        0.92360    0.46170    0.57800    1.000
    H16      H        0.84640    0.54140    0.60090    1.000
    H17      H        0.95380    0.53530    0.63880    1.000
    C14      C        0.96200    0.59190    0.53429    1.000
    C15      C        0.89810    0.58550    0.46440    1.000
    H18      H        0.94040    0.59750    0.42160    1.000
    H19      H        0.86850    0.52280    0.45980    1.000
    C16      C        0.81580    0.65840    0.46990    1.000
    H20      H        0.74980    0.62820    0.47630    1.000
    H21      H        0.81370    0.69660    0.42550    1.000
    C17      C        0.84070    0.71960    0.53570    1.000
    H22      H        0.79940    0.69600    0.57680    1.000
    C18      C        0.95430    0.69980    0.55560    1.000
    C19      C        0.97640    0.72110    0.63410    1.000
    H23      H        0.96980    0.78810    0.64250    1.000
    H24      H        0.04470    0.70150    0.64570    1.000
    H25      H        0.92880    0.68770    0.66480    1.000
    C20      C        0.02650    0.75640    0.50730    1.000
    H26      H        0.02230    0.82230    0.52020    1.000
    H27      H        0.00760    0.74830    0.45660    1.000
    H28      H        0.09510    0.73440    0.51450    1.000
    O9       O        0.19626    0.46290    0.31228    1.000
    O10      O        0.18481    0.46652    0.19340    1.000
    C21      C        0.23460    0.48130    0.25030    1.000
    C22      C        0.33920    0.52160    0.24580    1.000
    H29      H        0.35750    0.53050    0.19510    1.000
    H30      H        0.38680    0.47880    0.26850    1.000
    H31      H        0.34100    0.58150    0.27090    1.000
    Mn3      Mn       0.25976    0.51381    0.92018    1.000
    Mn4      Mn       0.21694    0.48931    0.08329    1.000
    O11      O        0.77500    0.87246    0.91538    1.000
    O12      O        0.78850    0.85048    0.03558    1.000
    O13      O        0.07270    0.54330    0.04645    1.000
    O14      O        0.10511    0.54780    0.92786    1.000
    C23      C        0.79120    0.82150    0.97020    1.000
    C24      C        0.04670    0.55840    0.98090    1.000
    C25      C        0.75530    0.68460    0.89000    1.000
    H32      H        0.77400    0.72250    0.84830    1.000
    H33      H        0.68350    0.69160    0.89950    1.000
    H34      H        0.77030    0.61920    0.88000    1.000
    C26      C        0.81560    0.71680    0.95690    1.000
    C27      C        0.78660    0.65590    0.02300    1.000
    H35      H        0.79170    0.69250    0.06800    1.000
    H36      H        0.71700    0.63300    0.01810    1.000
    C28      C        0.86110    0.57350    0.02440    1.000
    H37      H        0.82560    0.51450    0.01460    1.000
    H38      H        0.89350    0.56900    0.07220    1.000
    C29      C        0.94080    0.59190    0.96530    1.000
    H39      H        0.91790    0.55880    0.92090    1.000
    C30      C        0.93290    0.69940    0.94920    1.000
    C31      C        0.97550    0.72640    0.87300    1.000
    H40      H        0.96850    0.79350    0.86570    1.000
    H41      H        0.93810    0.69320    0.83560    1.000
    H42      H        0.04640    0.70930    0.87030    1.000
    C32      C        0.99420    0.75540    0.00500    1.000
    H43      H        0.98820    0.82190    0.99450    1.000
    H44      H        0.06470    0.73700    0.00240    1.000
    H45      H        0.96850    0.74300    0.05350    1.000
    O15      O        0.40204    0.46920    0.96069    1.000
    O16      O        0.36946    0.43780    0.07745    1.000
    O17      O        0.71500    0.13158    0.08180    1.000
    O18      O        0.67370    0.14042    0.96427    1.000
    C33      C        0.42740    0.44020    0.02250    1.000
    C34      C        0.68460    0.17550    0.02690    1.000
    C35      C        0.58270    0.47360    0.09350    1.000
    H46      H        0.57640    0.53830    0.07800    1.000
    H47      H        0.65360    0.45860    0.10090    1.000
    H48      H        0.54620    0.46470    0.13880    1.000
    C36      C        0.53800    0.40810    0.03429    1.000
    C37      C        0.60190    0.41450    0.96440    1.000
    H49      H        0.55960    0.40250    0.92160    1.000
    H50      H        0.63150    0.47720    0.95980    1.000
    C38      C        0.68420    0.34160    0.96990    1.000
    H51      H        0.75020    0.37180    0.97630    1.000
    H52      H        0.68630    0.30340    0.92550    1.000
    C39      C        0.65930    0.28040    0.03570    1.000
    H53      H        0.70060    0.30400    0.07680    1.000
    C40      C        0.54570    0.30020    0.05560    1.000
    C41      C        0.52360    0.27890    0.13410    1.000
    H54      H        0.53020    0.21190    0.14250    1.000
    H55      H        0.45530    0.29850    0.14570    1.000
    H56      H        0.57120    0.31230    0.16480    1.000
    C42      C        0.47350    0.24360    0.00730    1.000
    H57      H        0.47770    0.17770    0.02020    1.000
    H58      H        0.49240    0.25170    0.95660    1.000
    H59      H        0.40490    0.26560    0.01450    1.000
    O19      O        0.30374    0.53710    0.81228    1.000
    O20      O        0.31519    0.53348    0.69340    1.000
    C43      C        0.26540    0.51870    0.75030    1.000
    C44      C        0.16080    0.47840    0.74580    1.000
    H60      H        0.14250    0.46950    0.69510    1.000
    H61      H        0.11320    0.52120    0.76850    1.000
    H62      H        0.15900    0.41850    0.77090    1.000
    Mn5      Mn       0.75976    0.98619    0.07982    1.000
    Mn6      Mn       0.71694    0.01069    0.91671    1.000
    O21      O        0.27500    0.62754    0.08462    1.000
    O22      O        0.28850    0.64952    0.96442    1.000
    O23      O        0.57270    0.95670    0.95355    1.000
    O24      O        0.60511    0.95220    0.07214    1.000
    C45      C        0.29120    0.67850    0.02980    1.000
    C46      C        0.54670    0.94160    0.01910    1.000
    C47      C        0.25530    0.81540    0.11000    1.000
    H63      H        0.27400    0.77750    0.15170    1.000
    H64      H        0.18350    0.80840    0.10050    1.000
    H65      H        0.27030    0.88080    0.12000    1.000
    C48      C        0.31560    0.78320    0.04310    1.000
    C49      C        0.28660    0.84410    0.97700    1.000
    H66      H        0.29170    0.80750    0.93200    1.000
    H67      H        0.21700    0.86700    0.98190    1.000
    C50      C        0.36110    0.92650    0.97560    1.000
    H68      H        0.32560    0.98550    0.98540    1.000
    H69      H        0.39350    0.93100    0.92780    1.000
    C51      C        0.44080    0.90810    0.03470    1.000
    H70      H        0.41790    0.94120    0.07910    1.000
    C52      C        0.43290    0.80060    0.05080    1.000
    C53      C        0.47550    0.77360    0.12700    1.000
    H71      H        0.46850    0.70650    0.13430    1.000
    H72      H        0.43810    0.80680    0.16440    1.000
    H73      H        0.54640    0.79070    0.12970    1.000
    C54      C        0.49420    0.74460    0.99500    1.000
    H74      H        0.48820    0.67810    0.00550    1.000
    H75      H        0.56470    0.76300    0.99760    1.000
    H76      H        0.46850    0.75700    0.94650    1.000
    O25      O        0.90204    0.03080    0.03931    1.000
    O26      O        0.86946    0.06220    0.92255    1.000
    O27      O        0.21500    0.36842    0.91820    1.000
    O28      O        0.17370    0.35958    0.03573    1.000
    C55      C        0.92740    0.05980    0.97750    1.000
    C56      C        0.18460    0.32450    0.97310    1.000
    C57      C        0.08270    0.02640    0.90650    1.000
    H77      H        0.07640    0.96170    0.92200    1.000
    H78      H        0.15360    0.04140    0.89910    1.000
    H79      H        0.04620    0.03530    0.86120    1.000
    C58      C        0.03800    0.09190    0.96571    1.000
    C59      C        0.10190    0.08550    0.03560    1.000
    H80      H        0.05960    0.09750    0.07840    1.000
    H81      H        0.13150    0.02280    0.04020    1.000
    C60      C        0.18420    0.15840    0.03010    1.000
    H82      H        0.25020    0.12820    0.02370    1.000
    H83      H        0.18630    0.19660    0.07450    1.000
    C61      C        0.15930    0.21960    0.96430    1.000
    H84      H        0.20060    0.19600    0.92320    1.000
    C62      C        0.04570    0.19980    0.94440    1.000
    C63      C        0.02360    0.22110    0.86590    1.000
    H85      H        0.03020    0.28810    0.85750    1.000
    H86      H        0.95530    0.20150    0.85430    1.000
    H87      H        0.07120    0.18770    0.83520    1.000
    C64      C        0.97350    0.25640    0.99270    1.000
    H88      H        0.97770    0.32230    0.97980    1.000
    H89      H        0.99240    0.24830    0.04340    1.000
    H90      H        0.90490    0.23440    0.98550    1.000
    O29      O        0.80374    0.96290    0.18772    1.000
    O30      O        0.81519    0.96652    0.30660    1.000
    C65      C        0.76540    0.98130    0.24970    1.000
    C66      C        0.66080    0.02160    0.25420    1.000
    H91      H        0.64250    0.03050    0.30490    1.000
    H92      H        0.61320    0.97880    0.23150    1.000
    H93      H        0.65900    0.08150    0.22910    1.000
    Mn7      Mn       0.74024    0.01381    0.57982    1.000
    Mn8      Mn       0.78306    0.98931    0.41671    1.000
    O31      O        0.22500    0.37246    0.58462    1.000
    O32      O        0.21150    0.35048    0.46442    1.000
    O33      O        0.92730    0.04330    0.45355    1.000
    O34      O        0.89489    0.04780    0.57214    1.000
    C67      C        0.20880    0.32150    0.52980    1.000
    C68      C        0.95330    0.05840    0.51910    1.000
    C69      C        0.24470    0.18460    0.61000    1.000
    H94      H        0.22600    0.22250    0.65170    1.000
    H95      H        0.31650    0.19160    0.60050    1.000
    H96      H        0.22970    0.11920    0.62000    1.000
    C70      C        0.18440    0.21680    0.54310    1.000
    C71      C        0.21340    0.15590    0.47700    1.000
    H97      H        0.20830    0.19250    0.43200    1.000
    H98      H        0.28300    0.13300    0.48190    1.000
    C72      C        0.13890    0.07350    0.47560    1.000
    H99      H        0.17440    0.01450    0.48540    1.000
    H100     H        0.10650    0.06900    0.42780    1.000
    C73      C        0.05920    0.09190    0.53470    1.000
    H101     H        0.08210    0.05880    0.57910    1.000
    C74      C        0.06710    0.19940    0.55080    1.000
    C75      C        0.02450    0.22640    0.62700    1.000
    H102     H        0.03150    0.29350    0.63430    1.000
    H103     H        0.06190    0.19320    0.66440    1.000
    H104     H        0.95360    0.20930    0.62970    1.000
    C76      C        0.00580    0.25540    0.49500    1.000
    H105     H        0.01180    0.32190    0.50550    1.000
    H106     H        0.93530    0.23700    0.49760    1.000
    H107     H        0.03150    0.24300    0.44650    1.000
    O35      O        0.59796    0.96920    0.53931    1.000
    O36      O        0.63054    0.93780    0.42255    1.000
    O37      O        0.28500    0.63158    0.41820    1.000
    O38      O        0.32630    0.64042    0.53573    1.000
    C77      C        0.57260    0.94020    0.47750    1.000
    C78      C        0.31540    0.67550    0.47310    1.000
    C79      C        0.41730    0.97360    0.40650    1.000
    H108     H        0.42360    0.03830    0.42200    1.000
    H109     H        0.34640    0.95860    0.39910    1.000
    H110     H        0.45380    0.96470    0.36120    1.000
    C80      C        0.46200    0.90810    0.46571    1.000
    C81      C        0.39810    0.91450    0.53560    1.000
    H111     H        0.44040    0.90250    0.57840    1.000
    H112     H        0.36850    0.97720    0.54020    1.000
    C82      C        0.31580    0.84160    0.53010    1.000
    H113     H        0.24980    0.87180    0.52370    1.000
    H114     H        0.31370    0.80340    0.57450    1.000
    C83      C        0.34070    0.78040    0.46430    1.000
    H115     H        0.29940    0.80400    0.42320    1.000
    C84      C        0.45430    0.80020    0.44440    1.000
    C85      C        0.47640    0.77890    0.36590    1.000
    H116     H        0.46980    0.71190    0.35750    1.000
    H117     H        0.54470    0.79850    0.35430    1.000
    H118     H        0.42880    0.81230    0.33520    1.000
    C86      C        0.52650    0.74360    0.49270    1.000
    H119     H        0.52230    0.67770    0.47980    1.000
    H120     H        0.50760    0.75170    0.54340    1.000
    H121     H        0.59510    0.76560    0.48550    1.000
    O39      O        0.69626    0.03710    0.68772    1.000
    O40      O        0.68481    0.03348    0.80660    1.000
    C87      C        0.73460    0.01870    0.74970    1.000
    C88      C        0.83920    0.97840    0.75420    1.000
    H122     H        0.85750    0.96950    0.80490    1.000
    H123     H        0.88680    0.02120    0.73150    1.000
    H124     H        0.84100    0.91850    0.72910    1.000
