# CIF file generated by openbabel 3.1.0, see https://openbabel.org
data_I
_chemical_name_common 'image0'
_cell_length_a 16.6502
_cell_length_b 16.6502
_cell_length_c 51.313
_cell_angle_alpha 90
_cell_angle_beta 90
_cell_angle_gamma 120
_space_group_name_H-M_alt 'P 1'
_space_group_name_Hall 'P 1'
loop_
    _symmetry_equiv_pos_as_xyz
    x,y,z
loop_
    _atom_site_label
    _atom_site_type_symbol
    _atom_site_fract_x
    _atom_site_fract_y
    _atom_site_fract_z
    _atom_site_occupancy
    W1       W        0.51816    0.62430    0.17320    1.000
    W2       W        0.30545    0.44762    0.16910    1.000
    W3       W        0.25835    0.53290    0.22964    1.000
    W4       W        0.39798    0.58509    0.11885    1.000
    Tm1      Tm       0.32229    0.21718    0.16869    1.000
    O1       O        0.43990    0.49490    0.17840    1.000
    O2       O        0.27780    0.33220    0.17180    1.000
    O3       O        0.37780    0.59410    0.16150    1.000
    O4       O        0.50800    0.60620    0.13540    1.000
    O5       O        0.29850    0.47950    0.20570    1.000
    O6       O        0.24540    0.38500    0.31190    1.000
    O7       O        0.49650    0.65430    0.20740    1.000
    O8       O        0.37460    0.28750    0.20790    1.000
    O9       O        0.33440    0.45560    0.13340    1.000
    O10      O        0.19310    0.43970    0.16510    1.000
    O11      O        0.22600    0.62200    0.24520    1.000
    O12      O        0.43670    0.71000    0.11580    1.000
    O13      O        0.37160    0.50180    0.32720    1.000
    N1       N        0.50500    0.50990    0.25730    1.000
    C1       C        0.37930    0.36360    0.24700    1.000
    C2       C        0.46420    0.43530    0.24120    1.000
    H1       H        0.49580    0.43290    0.22580    1.000
    C3       C        0.37930    0.44080    0.28630    1.000
    C4       C        0.46660    0.51330    0.28030    1.000
    H2       H        0.49900    0.56420    0.29210    1.000
    C5       C        0.33610    0.36590    0.27000    1.000
    H3       H        0.27580    0.31520    0.27430    1.000
    C6       C        0.33030    0.44520    0.31010    1.000
    C7       C        0.33290    0.28020    0.22950    1.000
    O14      O        0.26460    0.21330    0.23720    1.000
    W5       W        0.18483    0.95763    0.50653    1.000
    W6       W        0.97212    0.78095    0.50243    1.000
    W7       W        0.92502    0.86623    0.56298    1.000
    W8       W        0.06465    0.91842    0.45219    1.000
    Tm2      Tm       0.98896    0.55051    0.50202    1.000
    O15      O        0.10657    0.82823    0.51173    1.000
    O16      O        0.94447    0.66553    0.50513    1.000
    O17      O        0.04447    0.92743    0.49483    1.000
    O18      O        0.17467    0.93953    0.46873    1.000
    O19      O        0.96517    0.81283    0.53903    1.000
    O20      O        0.91207    0.71833    0.64523    1.000
    O21      O        0.16317    0.98763    0.54073    1.000
    O22      O        0.04127    0.62083    0.54123    1.000
    O23      O        0.00107    0.78893    0.46673    1.000
    O24      O        0.85977    0.77303    0.49843    1.000
    O25      O        0.89267    0.95533    0.57853    1.000
    O26      O        0.10337    0.04333    0.44913    1.000
    O27      O        0.03827    0.83513    0.66053    1.000
    N2       N        0.17167    0.84323    0.59063    1.000
    C8       C        0.04597    0.69693    0.58033    1.000
    C9       C        0.13087    0.76863    0.57453    1.000
    H4       H        0.16247    0.76623    0.55913    1.000
    C10      C        0.04597    0.77413    0.61963    1.000
    C11      C        0.13327    0.84663    0.61363    1.000
    H5       H        0.16567    0.89753    0.62543    1.000
    C12      C        0.00277    0.69923    0.60333    1.000
    H6       H        0.94247    0.64853    0.60763    1.000
    C13      C        0.99697    0.77853    0.64343    1.000
    C14      C        0.99957    0.61353    0.56283    1.000
    O28      O        0.93127    0.54663    0.57053    1.000
    W9       W        0.85149    0.29097    0.83987    1.000
    W10      W        0.63878    0.11429    0.83577    1.000
    W11      W        0.59168    0.19957    0.89631    1.000
    W12      W        0.73131    0.25176    0.78552    1.000
    Tm3      Tm       0.65562    0.88385    0.83535    1.000
    O29      O        0.77323    0.16157    0.84507    1.000
    O30      O        0.61113    0.99887    0.83847    1.000
    O31      O        0.71113    0.26077    0.82817    1.000
    O32      O        0.84133    0.27287    0.80207    1.000
    O33      O        0.63183    0.14617    0.87237    1.000
    O34      O        0.57873    0.05167    0.97857    1.000
    O35      O        0.82983    0.32097    0.87407    1.000
    O36      O        0.70793    0.95417    0.87457    1.000
    O37      O        0.66773    0.12227    0.80007    1.000
    O38      O        0.52643    0.10637    0.83177    1.000
    O39      O        0.55933    0.28867    0.91187    1.000
    O40      O        0.77003    0.37667    0.78247    1.000
    O41      O        0.70493    0.16847    0.99387    1.000
    N3       N        0.83833    0.17657    0.92397    1.000
    C15      C        0.71263    0.03027    0.91367    1.000
    C16      C        0.79753    0.10197    0.90787    1.000
    H7       H        0.82913    0.09957    0.89247    1.000
    C17      C        0.71263    0.10747    0.95297    1.000
    C18      C        0.79993    0.17997    0.94697    1.000
    H8       H        0.83233    0.23087    0.95877    1.000
    C19      C        0.66943    0.03257    0.93667    1.000
    H9       H        0.60913    0.98187    0.94097    1.000
    C20      C        0.66363    0.11187    0.97677    1.000
    C21      C        0.66623    0.94687    0.89617    1.000
    O42      O        0.59793    0.87997    0.90387    1.000
    W13      W        0.37570    0.89386    0.17320    1.000
    W14      W        0.55238    0.85783    0.16910    1.000
    W15      W        0.46710    0.72545    0.22964    1.000
    W16      W        0.41491    0.81289    0.11885    1.000
    Tm4      Tm       0.78282    0.10511    0.16869    1.000
    O43      O        0.50510    0.94500    0.17840    1.000
    O44      O        0.66780    0.94560    0.17180    1.000
    O45      O        0.40590    0.78370    0.16150    1.000
    O46      O        0.39380    0.90180    0.13540    1.000
    O47      O        0.52050    0.81900    0.20570    1.000
    O48      O        0.61500    0.86040    0.31190    1.000
    O49      O        0.34570    0.84220    0.20740    1.000
    O50      O        0.71250    0.08710    0.20790    1.000
    O51      O        0.54440    0.87880    0.13340    1.000
    O52      O        0.56030    0.75340    0.16510    1.000
    O53      O        0.37800    0.60400    0.24520    1.000
    O54      O        0.29000    0.72670    0.11580    1.000
    O55      O        0.49820    0.86980    0.32720    1.000
    N4       N        0.49010    0.99510    0.25730    1.000
    C22      C        0.63640    0.01570    0.24700    1.000
    C23      C        0.56470    0.02890    0.24120    1.000
    H10      H        0.56710    0.06290    0.22580    1.000
    C24      C        0.55920    0.93850    0.28630    1.000
    C25      C        0.48670    0.95330    0.28030    1.000
    H11      H        0.43580    0.93480    0.29210    1.000
    C26      C        0.63410    0.97020    0.27000    1.000
    H12      H        0.68480    0.96060    0.27430    1.000
    C27      C        0.55480    0.88510    0.31010    1.000
    C28      C        0.71980    0.05270    0.22950    1.000
    O56      O        0.78670    0.05130    0.23720    1.000
    W17      W        0.04237    0.22719    0.50653    1.000
    W18      W        0.21905    0.19116    0.50243    1.000
    W19      W        0.13377    0.05878    0.56298    1.000
    W20      W        0.08158    0.14622    0.45219    1.000
    Tm5      Tm       0.44949    0.43844    0.50202    1.000
    O57      O        0.17177    0.27833    0.51173    1.000
    O58      O        0.33447    0.27893    0.50513    1.000
    O59      O        0.07257    0.11703    0.49483    1.000
    O60      O        0.06047    0.23513    0.46873    1.000
    O61      O        0.18717    0.15233    0.53903    1.000
    O62      O        0.28167    0.19373    0.64523    1.000
    O63      O        0.01237    0.17553    0.54073    1.000
    O64      O        0.37917    0.42043    0.54123    1.000
    O65      O        0.21107    0.21213    0.46673    1.000
    O66      O        0.22697    0.08673    0.49843    1.000
    O67      O        0.04467    0.93733    0.57853    1.000
    O68      O        0.95667    0.06003    0.44913    1.000
    O69      O        0.16487    0.20313    0.66053    1.000
    N5       N        0.15677    0.32843    0.59063    1.000
    C29      C        0.30307    0.34903    0.58033    1.000
    C30      C        0.23137    0.36223    0.57453    1.000
    H13      H        0.23377    0.39623    0.55913    1.000
    C31      C        0.22587    0.27183    0.61963    1.000
    C32      C        0.15337    0.28663    0.61363    1.000
    H14      H        0.10247    0.26813    0.62543    1.000
    C33      C        0.30077    0.30353    0.60333    1.000
    H15      H        0.35147    0.29393    0.60763    1.000
    C34      C        0.22147    0.21843    0.64343    1.000
    C35      C        0.38647    0.38603    0.56283    1.000
    O70      O        0.45337    0.38463    0.57053    1.000
    W21      W        0.70903    0.56053    0.83987    1.000
    W22      W        0.88571    0.52450    0.83577    1.000
    W23      W        0.80043    0.39212    0.89631    1.000
    W24      W        0.74824    0.47956    0.78552    1.000
    Tm6      Tm       0.11615    0.77178    0.83535    1.000
    O71      O        0.83843    0.61167    0.84507    1.000
    O72      O        0.00113    0.61227    0.83847    1.000
    O73      O        0.73923    0.45037    0.82817    1.000
    O74      O        0.72713    0.56847    0.80207    1.000
    O75      O        0.85383    0.48567    0.87237    1.000
    O76      O        0.94833    0.52707    0.97857    1.000
    O77      O        0.67903    0.50887    0.87407    1.000
    O78      O        0.04583    0.75377    0.87457    1.000
    O79      O        0.87773    0.54547    0.80007    1.000
    O80      O        0.89363    0.42007    0.83177    1.000
    O81      O        0.71133    0.27067    0.91187    1.000
    O82      O        0.62333    0.39337    0.78247    1.000
    O83      O        0.83153    0.53647    0.99387    1.000
    N6       N        0.82343    0.66177    0.92397    1.000
    C36      C        0.96973    0.68237    0.91367    1.000
    C37      C        0.89803    0.69557    0.90787    1.000
    H16      H        0.90043    0.72957    0.89247    1.000
    C38      C        0.89253    0.60517    0.95297    1.000
    C39      C        0.82003    0.61997    0.94697    1.000
    H17      H        0.76913    0.60147    0.95877    1.000
    C40      C        0.96743    0.63687    0.93667    1.000
    H18      H        0.01813    0.62727    0.94097    1.000
    C41      C        0.88813    0.55177    0.97677    1.000
    C42      C        0.05313    0.71937    0.89617    1.000
    O84      O        0.12003    0.71797    0.90387    1.000
    W25      W        0.10614    0.48184    0.17320    1.000
    W26      W        0.14217    0.69455    0.16910    1.000
    W27      W        0.27455    0.74165    0.22964    1.000
    W28      W        0.18711    0.60202    0.11885    1.000
    Tm7      Tm       0.89489    0.67771    0.16869    1.000
    O85      O        0.05500    0.56010    0.17840    1.000
    O86      O        0.05440    0.72220    0.17180    1.000
    O87      O        0.21630    0.62220    0.16150    1.000
    O88      O        0.09820    0.49200    0.13540    1.000
    O89      O        0.18100    0.70150    0.20570    1.000
    O90      O        0.13960    0.75460    0.31190    1.000
    O91      O        0.15780    0.50350    0.20740    1.000
    O92      O        0.91290    0.62540    0.20790    1.000
    O93      O        0.12120    0.66560    0.13340    1.000
    O94      O        0.24660    0.80690    0.16510    1.000
    O95      O        0.39600    0.77400    0.24520    1.000
    O96      O        0.27330    0.56330    0.11580    1.000
    O97      O        0.13020    0.62840    0.32720    1.000
    N7       N        0.00490    0.49500    0.25730    1.000
    C43      C        0.98430    0.62070    0.24700    1.000
    C44      C        0.97110    0.53580    0.24120    1.000
    H19      H        0.93710    0.50420    0.22580    1.000
    C45      C        0.06150    0.62070    0.28630    1.000
    C46      C        0.04670    0.53340    0.28030    1.000
    H20      H        0.06520    0.50100    0.29210    1.000
    C47      C        0.02980    0.66390    0.27000    1.000
    H21      H        0.03940    0.72420    0.27430    1.000
    C48      C        0.11490    0.66970    0.31010    1.000
    C49      C        0.94730    0.66710    0.22950    1.000
    O98      O        0.94870    0.73540    0.23720    1.000
    W29      W        0.77281    0.81517    0.50653    1.000
    W30      W        0.80884    0.02788    0.50243    1.000
    W31      W        0.94122    0.07498    0.56298    1.000
    W32      W        0.85378    0.93535    0.45219    1.000
    Tm8      Tm       0.56156    0.01104    0.50202    1.000
    O99      O        0.72167    0.89343    0.51173    1.000
    O100     O        0.72107    0.05553    0.50513    1.000
    O101     O        0.88297    0.95553    0.49483    1.000
    O102     O        0.76487    0.82533    0.46873    1.000
    O103     O        0.84767    0.03483    0.53903    1.000
    O104     O        0.80627    0.08793    0.64523    1.000
    O105     O        0.82447    0.83683    0.54073    1.000
    O106     O        0.57957    0.95873    0.54123    1.000
    O107     O        0.78787    0.99893    0.46673    1.000
    O108     O        0.91327    0.14023    0.49843    1.000
    O109     O        0.06267    0.10733    0.57853    1.000
    O110     O        0.93997    0.89663    0.44913    1.000
    O111     O        0.79687    0.96173    0.66053    1.000
    N8       N        0.67157    0.82833    0.59063    1.000
    C50      C        0.65097    0.95403    0.58033    1.000
    C51      C        0.63777    0.86913    0.57453    1.000
    H22      H        0.60377    0.83753    0.55913    1.000
    C52      C        0.72817    0.95403    0.61963    1.000
    C53      C        0.71337    0.86673    0.61363    1.000
    H23      H        0.73187    0.83433    0.62543    1.000
    C54      C        0.69647    0.99723    0.60333    1.000
    H24      H        0.70607    0.05753    0.60763    1.000
    C55      C        0.78157    0.00303    0.64343    1.000
    C56      C        0.61397    0.00043    0.56283    1.000
    O112     O        0.61537    0.06873    0.57053    1.000
    W33      W        0.43947    0.14851    0.83987    1.000
    W34      W        0.47550    0.36122    0.83577    1.000
    W35      W        0.60788    0.40832    0.89631    1.000
    W36      W        0.52044    0.26869    0.78552    1.000
    Tm9      Tm       0.22822    0.34438    0.83535    1.000
    O113     O        0.38833    0.22677    0.84507    1.000
    O114     O        0.38773    0.38887    0.83847    1.000
    O115     O        0.54963    0.28887    0.82817    1.000
    O116     O        0.43153    0.15867    0.80207    1.000
    O117     O        0.51433    0.36817    0.87237    1.000
    O118     O        0.47293    0.42127    0.97857    1.000
    O119     O        0.49113    0.17017    0.87407    1.000
    O120     O        0.24623    0.29207    0.87457    1.000
    O121     O        0.45453    0.33227    0.80007    1.000
    O122     O        0.57993    0.47357    0.83177    1.000
    O123     O        0.72933    0.44067    0.91187    1.000
    O124     O        0.60663    0.22997    0.78247    1.000
    O125     O        0.46353    0.29507    0.99387    1.000
    N9       N        0.33823    0.16167    0.92397    1.000
    C57      C        0.31763    0.28737    0.91367    1.000
    C58      C        0.30443    0.20247    0.90787    1.000
    H25      H        0.27043    0.17087    0.89247    1.000
    C59      C        0.39483    0.28737    0.95297    1.000
    C60      C        0.38003    0.20007    0.94697    1.000
    H26      H        0.39853    0.16767    0.95877    1.000
    C61      C        0.36313    0.33057    0.93667    1.000
    H27      H        0.37273    0.39087    0.94097    1.000
    C62      C        0.44823    0.33637    0.97677    1.000
    C63      C        0.28063    0.33377    0.89617    1.000
    O126     O        0.28203    0.40207    0.90387    1.000
    W37      W        0.37570    0.48184    0.67320    1.000
    W38      W        0.55238    0.69455    0.66910    1.000
    W39      W        0.46710    0.74165    0.72964    1.000
    W40      W        0.41491    0.60202    0.61885    1.000
    Tm10     Tm       0.78282    0.67771    0.66869    1.000
    O127     O        0.50510    0.56010    0.67840    1.000
    O128     O        0.66780    0.72220    0.67180    1.000
    O129     O        0.40590    0.62220    0.66150    1.000
    O130     O        0.39380    0.49200    0.63540    1.000
    O131     O        0.52050    0.70150    0.70570    1.000
    O132     O        0.61500    0.75460    0.81190    1.000
    O133     O        0.34570    0.50350    0.70740    1.000
    O134     O        0.71250    0.62540    0.70790    1.000
    O135     O        0.54440    0.66560    0.63340    1.000
    O136     O        0.56030    0.80690    0.66510    1.000
    O137     O        0.37800    0.77400    0.74520    1.000
    O138     O        0.29000    0.56330    0.61580    1.000
    O139     O        0.49820    0.62840    0.82720    1.000
    N10      N        0.49010    0.49500    0.75730    1.000
    C64      C        0.63640    0.62070    0.74700    1.000
    C65      C        0.56470    0.53580    0.74120    1.000
    H28      H        0.56710    0.50420    0.72580    1.000
    C66      C        0.55920    0.62070    0.78630    1.000
    C67      C        0.48670    0.53340    0.78030    1.000
    H29      H        0.43580    0.50100    0.79210    1.000
    C68      C        0.63410    0.66390    0.77000    1.000
    H30      H        0.68480    0.72420    0.77430    1.000
    C69      C        0.55480    0.66970    0.81010    1.000
    C70      C        0.71980    0.66710    0.72950    1.000
    O140     O        0.78670    0.73540    0.73720    1.000
    W41      W        0.04237    0.81517    0.00653    1.000
    W42      W        0.21905    0.02788    0.00243    1.000
    W43      W        0.13377    0.07498    0.06298    1.000
    W44      W        0.08158    0.93535    0.95219    1.000
    Tm11     Tm       0.44949    0.01104    0.00202    1.000
    O141     O        0.17177    0.89343    0.01173    1.000
    O142     O        0.33447    0.05553    0.00513    1.000
    O143     O        0.07257    0.95553    0.99483    1.000
    O144     O        0.06047    0.82533    0.96873    1.000
    O145     O        0.18717    0.03483    0.03903    1.000
    O146     O        0.28167    0.08793    0.14523    1.000
    O147     O        0.01237    0.83683    0.04073    1.000
    O148     O        0.37917    0.95873    0.04123    1.000
    O149     O        0.21107    0.99893    0.96673    1.000
    O150     O        0.22697    0.14023    0.99843    1.000
    O151     O        0.04467    0.10733    0.07853    1.000
    O152     O        0.95667    0.89663    0.94913    1.000
    O153     O        0.16487    0.96173    0.16053    1.000
    N11      N        0.15677    0.82833    0.09063    1.000
    C71      C        0.30307    0.95403    0.08033    1.000
    C72      C        0.23137    0.86913    0.07453    1.000
    H31      H        0.23377    0.83753    0.05913    1.000
    C73      C        0.22587    0.95403    0.11963    1.000
    C74      C        0.15337    0.86673    0.11363    1.000
    H32      H        0.10247    0.83433    0.12543    1.000
    C75      C        0.30077    0.99723    0.10333    1.000
    H33      H        0.35147    0.05753    0.10763    1.000
    C76      C        0.22147    0.00303    0.14343    1.000
    C77      C        0.38647    0.00043    0.06283    1.000
    O154     O        0.45337    0.06873    0.07053    1.000
    W45      W        0.70903    0.14851    0.33987    1.000
    W46      W        0.88571    0.36122    0.33577    1.000
    W47      W        0.80043    0.40832    0.39631    1.000
    W48      W        0.74824    0.26869    0.28552    1.000
    Tm12     Tm       0.11615    0.34438    0.33535    1.000
    O155     O        0.83843    0.22677    0.34507    1.000
    O156     O        0.00113    0.38887    0.33847    1.000
    O157     O        0.73923    0.28887    0.32817    1.000
    O158     O        0.72713    0.15867    0.30207    1.000
    O159     O        0.85383    0.36817    0.37237    1.000
    O160     O        0.94833    0.42127    0.47857    1.000
    O161     O        0.67903    0.17017    0.37407    1.000
    O162     O        0.04583    0.29207    0.37457    1.000
    O163     O        0.87773    0.33227    0.30007    1.000
    O164     O        0.89363    0.47357    0.33177    1.000
    O165     O        0.71133    0.44067    0.41187    1.000
    O166     O        0.62333    0.22997    0.28247    1.000
    O167     O        0.83153    0.29507    0.49387    1.000
    N12      N        0.82343    0.16167    0.42397    1.000
    C78      C        0.96973    0.28737    0.41367    1.000
    C79      C        0.89803    0.20247    0.40787    1.000
    H34      H        0.90043    0.17087    0.39247    1.000
    C80      C        0.89253    0.28737    0.45297    1.000
    C81      C        0.82003    0.20007    0.44697    1.000
    H35      H        0.76913    0.16767    0.45877    1.000
    C82      C        0.96743    0.33057    0.43667    1.000
    H36      H        0.01813    0.39087    0.44097    1.000
    C83      C        0.88813    0.33637    0.47677    1.000
    C84      C        0.05313    0.33377    0.39617    1.000
    O168     O        0.12003    0.40207    0.40387    1.000
    W49      W        0.10614    0.62430    0.67320    1.000
    W50      W        0.14217    0.44762    0.66910    1.000
    W51      W        0.27455    0.53290    0.72964    1.000
    W52      W        0.18711    0.58509    0.61885    1.000
    Tm13     Tm       0.89489    0.21718    0.66869    1.000
    O169     O        0.05500    0.49490    0.67840    1.000
    O170     O        0.05440    0.33220    0.67180    1.000
    O171     O        0.21630    0.59410    0.66150    1.000
    O172     O        0.09820    0.60620    0.63540    1.000
    O173     O        0.18100    0.47950    0.70570    1.000
    O174     O        0.13960    0.38500    0.81190    1.000
    O175     O        0.15780    0.65430    0.70740    1.000
    O176     O        0.91290    0.28750    0.70790    1.000
    O177     O        0.12120    0.45560    0.63340    1.000
    O178     O        0.24660    0.43970    0.66510    1.000
    O179     O        0.39600    0.62200    0.74520    1.000
    O180     O        0.27330    0.71000    0.61580    1.000
    O181     O        0.13020    0.50180    0.82720    1.000
    N13      N        0.00490    0.50990    0.75730    1.000
    C85      C        0.98430    0.36360    0.74700    1.000
    C86      C        0.97110    0.43530    0.74120    1.000
    H37      H        0.93710    0.43290    0.72580    1.000
    C87      C        0.06150    0.44080    0.78630    1.000
    C88      C        0.04670    0.51330    0.78030    1.000
    H38      H        0.06520    0.56420    0.79210    1.000
    C89      C        0.02980    0.36590    0.77000    1.000
    H39      H        0.03940    0.31520    0.77430    1.000
    C90      C        0.11490    0.44520    0.81010    1.000
    C91      C        0.94730    0.28020    0.72950    1.000
    O182     O        0.94870    0.21330    0.73720    1.000
    W53      W        0.77281    0.95763    0.00653    1.000
    W54      W        0.80884    0.78095    0.00243    1.000
    W55      W        0.94122    0.86623    0.06298    1.000
    W56      W        0.85378    0.91842    0.95219    1.000
    Tm14     Tm       0.56156    0.55051    0.00202    1.000
    O183     O        0.72167    0.82823    0.01173    1.000
    O184     O        0.72107    0.66553    0.00513    1.000
    O185     O        0.88297    0.92743    0.99483    1.000
    O186     O        0.76487    0.93953    0.96873    1.000
    O187     O        0.84767    0.81283    0.03903    1.000
    O188     O        0.80627    0.71833    0.14523    1.000
    O189     O        0.82447    0.98763    0.04073    1.000
    O190     O        0.57957    0.62083    0.04123    1.000
    O191     O        0.78787    0.78893    0.96673    1.000
    O192     O        0.91327    0.77303    0.99843    1.000
    O193     O        0.06267    0.95533    0.07853    1.000
    O194     O        0.93997    0.04333    0.94913    1.000
    O195     O        0.79687    0.83513    0.16053    1.000
    N14      N        0.67157    0.84323    0.09063    1.000
    C92      C        0.65097    0.69693    0.08033    1.000
    C93      C        0.63777    0.76863    0.07453    1.000
    H40      H        0.60377    0.76623    0.05913    1.000
    C94      C        0.72817    0.77413    0.11963    1.000
    C95      C        0.71337    0.84663    0.11363    1.000
    H41      H        0.73187    0.89753    0.12543    1.000
    C96      C        0.69647    0.69923    0.10333    1.000
    H42      H        0.70607    0.64853    0.10763    1.000
    C97      C        0.78157    0.77853    0.14343    1.000
    C98      C        0.61397    0.61353    0.06283    1.000
    O196     O        0.61537    0.54663    0.07053    1.000
    W57      W        0.43947    0.29097    0.33987    1.000
    W58      W        0.47550    0.11429    0.33577    1.000
    W59      W        0.60788    0.19957    0.39631    1.000
    W60      W        0.52044    0.25176    0.28552    1.000
    Tm15     Tm       0.22822    0.88385    0.33535    1.000
    O197     O        0.38833    0.16157    0.34507    1.000
    O198     O        0.38773    0.99887    0.33847    1.000
    O199     O        0.54963    0.26077    0.32817    1.000
    O200     O        0.43153    0.27287    0.30207    1.000
    O201     O        0.51433    0.14617    0.37237    1.000
    O202     O        0.47293    0.05167    0.47857    1.000
    O203     O        0.49113    0.32097    0.37407    1.000
    O204     O        0.24623    0.95417    0.37457    1.000
    O205     O        0.45453    0.12227    0.30007    1.000
    O206     O        0.57993    0.10637    0.33177    1.000
    O207     O        0.72933    0.28867    0.41187    1.000
    O208     O        0.60663    0.37667    0.28247    1.000
    O209     O        0.46353    0.16847    0.49387    1.000
    N15      N        0.33823    0.17657    0.42397    1.000
    C99      C        0.31763    0.03027    0.41367    1.000
    C100     C        0.30443    0.10197    0.40787    1.000
    H43      H        0.27043    0.09957    0.39247    1.000
    C101     C        0.39483    0.10747    0.45297    1.000
    C102     C        0.38003    0.17997    0.44697    1.000
    H44      H        0.39853    0.23087    0.45877    1.000
    C103     C        0.36313    0.03257    0.43667    1.000
    H45      H        0.37273    0.98187    0.44097    1.000
    C104     C        0.44823    0.11187    0.47677    1.000
    C105     C        0.28063    0.94687    0.39617    1.000
    O210     O        0.28203    0.87997    0.40387    1.000
    W61      W        0.51816    0.89386    0.67320    1.000
    W62      W        0.30545    0.85783    0.66910    1.000
    W63      W        0.25835    0.72545    0.72964    1.000
    W64      W        0.39798    0.81289    0.61885    1.000
    Tm16     Tm       0.32229    0.10511    0.66869    1.000
    O211     O        0.43990    0.94500    0.67840    1.000
    O212     O        0.27780    0.94560    0.67180    1.000
    O213     O        0.37780    0.78370    0.66150    1.000
    O214     O        0.50800    0.90180    0.63540    1.000
    O215     O        0.29850    0.81900    0.70570    1.000
    O216     O        0.24540    0.86040    0.81190    1.000
    O217     O        0.49650    0.84220    0.70740    1.000
    O218     O        0.37460    0.08710    0.70790    1.000
    O219     O        0.33440    0.87880    0.63340    1.000
    O220     O        0.19310    0.75340    0.66510    1.000
    O221     O        0.22600    0.60400    0.74520    1.000
    O222     O        0.43670    0.72670    0.61580    1.000
    O223     O        0.37160    0.86980    0.82720    1.000
    N16      N        0.50500    0.99510    0.75730    1.000
    C106     C        0.37930    0.01570    0.74700    1.000
    C107     C        0.46420    0.02890    0.74120    1.000
    H46      H        0.49580    0.06290    0.72580    1.000
    C108     C        0.37930    0.93850    0.78630    1.000
    C109     C        0.46660    0.95330    0.78030    1.000
    H47      H        0.49900    0.93480    0.79210    1.000
    C110     C        0.33610    0.97020    0.77000    1.000
    H48      H        0.27580    0.96060    0.77430    1.000
    C111     C        0.33030    0.88510    0.81010    1.000
    C112     C        0.33290    0.05270    0.72950    1.000
    O224     O        0.26460    0.05130    0.73720    1.000
    W65      W        0.18483    0.22719    0.00653    1.000
    W66      W        0.97212    0.19116    0.00243    1.000
    W67      W        0.92502    0.05878    0.06298    1.000
    W68      W        0.06465    0.14622    0.95219    1.000
    Tm17     Tm       0.98896    0.43844    0.00202    1.000
    O225     O        0.10657    0.27833    0.01173    1.000
    O226     O        0.94447    0.27893    0.00513    1.000
    O227     O        0.04447    0.11703    0.99483    1.000
    O228     O        0.17467    0.23513    0.96873    1.000
    O229     O        0.96517    0.15233    0.03903    1.000
    O230     O        0.91207    0.19373    0.14523    1.000
    O231     O        0.16317    0.17553    0.04073    1.000
    O232     O        0.04127    0.42043    0.04123    1.000
    O233     O        0.00107    0.21213    0.96673    1.000
    O234     O        0.85977    0.08673    0.99843    1.000
    O235     O        0.89267    0.93733    0.07853    1.000
    O236     O        0.10337    0.06003    0.94913    1.000
    O237     O        0.03827    0.20313    0.16053    1.000
    N17      N        0.17167    0.32843    0.09063    1.000
    C113     C        0.04597    0.34903    0.08033    1.000
    C114     C        0.13087    0.36223    0.07453    1.000
    H49      H        0.16247    0.39623    0.05913    1.000
    C115     C        0.04597    0.27183    0.11963    1.000
    C116     C        0.13327    0.28663    0.11363    1.000
    H50      H        0.16567    0.26813    0.12543    1.000
    C117     C        0.00277    0.30353    0.10333    1.000
    H51      H        0.94247    0.29393    0.10763    1.000
    C118     C        0.99697    0.21843    0.14343    1.000
    C119     C        0.99957    0.38603    0.06283    1.000
    O238     O        0.93127    0.38463    0.07053    1.000
    W69      W        0.85149    0.56053    0.33987    1.000
    W70      W        0.63878    0.52450    0.33577    1.000
    W71      W        0.59168    0.39212    0.39631    1.000
    W72      W        0.73131    0.47956    0.28552    1.000
    Tm18     Tm       0.65562    0.77178    0.33535    1.000
    O239     O        0.77323    0.61167    0.34507    1.000
    O240     O        0.61113    0.61227    0.33847    1.000
    O241     O        0.71113    0.45037    0.32817    1.000
    O242     O        0.84133    0.56847    0.30207    1.000
    O243     O        0.63183    0.48567    0.37237    1.000
    O244     O        0.57873    0.52707    0.47857    1.000
    O245     O        0.82983    0.50887    0.37407    1.000
    O246     O        0.70793    0.75377    0.37457    1.000
    O247     O        0.66773    0.54547    0.30007    1.000
    O248     O        0.52643    0.42007    0.33177    1.000
    O249     O        0.55933    0.27067    0.41187    1.000
    O250     O        0.77003    0.39337    0.28247    1.000
    O251     O        0.70493    0.53647    0.49387    1.000
    N18      N        0.83833    0.66177    0.42397    1.000
    C120     C        0.71263    0.68237    0.41367    1.000
    C121     C        0.79753    0.69557    0.40787    1.000
    H52      H        0.82913    0.72957    0.39247    1.000
    C122     C        0.71263    0.60517    0.45297    1.000
    C123     C        0.79993    0.61997    0.44697    1.000
    H53      H        0.83233    0.60147    0.45877    1.000
    C124     C        0.66943    0.63687    0.43667    1.000
    H54      H        0.60913    0.62727    0.44097    1.000
    C125     C        0.66363    0.55177    0.47677    1.000
    C126     C        0.66623    0.71937    0.39617    1.000
    O252     O        0.59793    0.71797    0.40387    1.000
    O253     O        0.33333    0.66667    0.20680    1.000
    O254     O        0.00000    0.00000    0.54013    1.000
    O255     O        0.66667    0.33333    0.87347    1.000
    O256     O        0.33333    0.66667    0.70680    1.000
    O257     O        0.00000    0.00000    0.04013    1.000
    O258     O        0.66667    0.33333    0.37347    1.000
