# CIF file generated by openbabel 3.1.0, see https://openbabel.org
data_I
_chemical_name_common 'image0'
_cell_length_a 8.6032
_cell_length_b 13.223
_cell_length_c 13.481
_cell_angle_alpha 90
_cell_angle_beta 92.386
_cell_angle_gamma 90
_space_group_name_H-M_alt 'P 1'
_space_group_name_Hall 'P 1'
loop_
    _symmetry_equiv_pos_as_xyz
    x,y,z
loop_
    _atom_site_label
    _atom_site_type_symbol
    _atom_site_fract_x
    _atom_site_fract_y
    _atom_site_fract_z
    _atom_site_occupancy
    Be1      Be       0.42030    0.11960    0.75010    1.000
    Be2      Be       0.67680    0.32630    0.90410    1.000
    Be3      Be       0.84180    0.50390    0.25840    1.000
    P1       P        0.65881    0.10076    0.90597    1.000
    H1       H        0.64270    0.07500    0.00090    1.000
    P2       P        0.39464    0.34009    0.77125    1.000
    H2       H        0.46600    0.38460    0.69850    1.000
    P3       P        0.81356    0.45396    0.75046    1.000
    H3       H        0.73770    0.41520    0.67340    1.000
    P4       P        0.69030    0.36229    0.12333    1.000
    H4       H        0.69840    0.26450    0.13860    1.000
    O1       O        0.77580    0.02800    0.86510    1.000
    O2       O        0.49810    0.09370    0.85650    1.000
    O3       O        0.72350    0.20760    0.90850    1.000
    O4       O        0.35770    0.23370    0.74020    1.000
    O5       O        0.49800    0.34460    0.86460    1.000
    O6       O        0.24380    0.39590    0.78740    1.000
    O7       O        0.73490    0.55280    0.77130    1.000
    O8       O        0.97690    0.47000    0.72090    1.000
    O9       O        0.80340    0.37880    0.83310    1.000
    O10      O        0.69990    0.37940    0.01230    1.000
    O11      O        0.82680    0.41040    0.17980    1.000
    O12      O        0.53460    0.39860    0.15900    1.000
    Be4      Be       0.57970    0.61960    0.74990    1.000
    Be5      Be       0.32320    0.82630    0.59590    1.000
    Be6      Be       0.15820    0.00390    0.24160    1.000
    P5       P        0.34119    0.60076    0.59403    1.000
    H5       H        0.35730    0.57500    0.49910    1.000
    P6       P        0.60536    0.84009    0.72875    1.000
    H6       H        0.53400    0.88460    0.80150    1.000
    P7       P        0.18644    0.95396    0.74954    1.000
    H7       H        0.26230    0.91520    0.82660    1.000
    P8       P        0.30970    0.86229    0.37667    1.000
    H8       H        0.30160    0.76450    0.36140    1.000
    O13      O        0.22420    0.52800    0.63490    1.000
    O14      O        0.50190    0.59370    0.64350    1.000
    O15      O        0.27650    0.70760    0.59150    1.000
    O16      O        0.64230    0.73370    0.75980    1.000
    O17      O        0.50200    0.84460    0.63540    1.000
    O18      O        0.75620    0.89590    0.71260    1.000
    O19      O        0.26510    0.05280    0.72870    1.000
    O20      O        0.02310    0.97000    0.77910    1.000
    O21      O        0.19660    0.87880    0.66690    1.000
    O22      O        0.30010    0.87940    0.48770    1.000
    O23      O        0.17320    0.91040    0.32020    1.000
    O24      O        0.46540    0.89860    0.34100    1.000
    Be7      Be       0.57970    0.88040    0.24990    1.000
    Be8      Be       0.32320    0.67370    0.09590    1.000
    Be9      Be       0.15820    0.49610    0.74160    1.000
    P9       P        0.34119    0.89924    0.09403    1.000
    H9       H        0.35730    0.92500    0.99910    1.000
    P10      P        0.60536    0.65991    0.22875    1.000
    H10      H        0.53400    0.61540    0.30150    1.000
    P11      P        0.18644    0.54604    0.24954    1.000
    H11      H        0.26230    0.58480    0.32660    1.000
    P12      P        0.30970    0.63771    0.87667    1.000
    H12      H        0.30160    0.73550    0.86140    1.000
    O25      O        0.22420    0.97200    0.13490    1.000
    O26      O        0.50190    0.90630    0.14350    1.000
    O27      O        0.27650    0.79240    0.09150    1.000
    O28      O        0.64230    0.76630    0.25980    1.000
    O29      O        0.50200    0.65540    0.13540    1.000
    O30      O        0.75620    0.60410    0.21260    1.000
    O31      O        0.26510    0.44720    0.22870    1.000
    O32      O        0.02310    0.53000    0.27910    1.000
    O33      O        0.19660    0.62120    0.16690    1.000
    O34      O        0.30010    0.62060    0.98770    1.000
    O35      O        0.17320    0.58960    0.82020    1.000
    O36      O        0.46540    0.60140    0.84100    1.000
    Be10     Be       0.42030    0.38040    0.25010    1.000
    Be11     Be       0.67680    0.17370    0.40410    1.000
    Be12     Be       0.84180    0.99610    0.75840    1.000
    P13      P        0.65881    0.39924    0.40597    1.000
    H13      H        0.64270    0.42500    0.50090    1.000
    P14      P        0.39464    0.15991    0.27125    1.000
    H14      H        0.46600    0.11540    0.19850    1.000
    P15      P        0.81356    0.04604    0.25046    1.000
    H15      H        0.73770    0.08480    0.17340    1.000
    P16      P        0.69030    0.13771    0.62333    1.000
    H16      H        0.69840    0.23550    0.63860    1.000
    O37      O        0.77580    0.47200    0.36510    1.000
    O38      O        0.49810    0.40630    0.35650    1.000
    O39      O        0.72350    0.29240    0.40850    1.000
    O40      O        0.35770    0.26630    0.24020    1.000
    O41      O        0.49800    0.15540    0.36460    1.000
    O42      O        0.24380    0.10410    0.28740    1.000
    O43      O        0.73490    0.94720    0.27130    1.000
    O44      O        0.97690    0.03000    0.22090    1.000
    O45      O        0.80340    0.12120    0.33310    1.000
    O46      O        0.69990    0.12060    0.51230    1.000
    O47      O        0.82680    0.08960    0.67980    1.000
    O48      O        0.53460    0.10140    0.65900    1.000
