# CIF file generated by openbabel 3.1.0, see https://openbabel.org
data_I
_chemical_name_common 'image0'
_cell_length_a 16.49
_cell_length_b 16.49
_cell_length_c 14.05
_cell_angle_alpha 90
_cell_angle_beta 90
_cell_angle_gamma 120
_space_group_name_H-M_alt 'P 1'
_space_group_name_Hall 'P 1'
loop_
    _symmetry_equiv_pos_as_xyz
    x,y,z
loop_
    _atom_site_label
    _atom_site_type_symbol
    _atom_site_fract_x
    _atom_site_fract_y
    _atom_site_fract_z
    _atom_site_occupancy
    O1       O        0.05420    0.17870    0.86270    1.000
    O2       O        0.77430    0.33570    0.83010    1.000
    O3       O        0.75490    0.29180    0.98040    1.000
    N1       N        0.93270    0.02600    0.86680    1.000
    C1       C        0.96730    0.24140    0.79080    1.000
    H1       H        0.99300    0.24160    0.73190    1.000
    C2       C        0.95150    0.20630    0.96010    1.000
    H2       H        0.96890    0.18460    0.01300    1.000
    C3       C        0.02380    0.08580    0.86630    1.000
    C4       C        0.90460    0.27600    0.80290    1.000
    H3       H        0.89080    0.30240    0.75140    1.000
    C5       C        0.79220    0.30140    0.89560    1.000
    C6       C        0.86450    0.27120    0.88850    1.000
    C7       C        0.98790    0.20760    0.87160    1.000
    C8       C        0.88840    0.23810    0.96830    1.000
    H4       H        0.86210    0.23730    0.02710    1.000
    O4       O        0.63000    0.33000    0.14280    1.000
    O5       O        0.82130    0.87550    0.86270    1.000
    O6       O        0.66430    0.43860    0.83010    1.000
    O7       O        0.70820    0.46310    0.98040    1.000
    N2       N        0.97400    0.90670    0.86680    1.000
    C9       C        0.75860    0.72590    0.79080    1.000
    H5       H        0.75840    0.75140    0.73190    1.000
    C10      C        0.79370    0.74520    0.96010    1.000
    H6       H        0.81540    0.78430    0.01300    1.000
    C11      C        0.91420    0.93800    0.86630    1.000
    C12      C        0.72400    0.62860    0.80290    1.000
    H7       H        0.69760    0.58840    0.75140    1.000
    C13      C        0.69860    0.49080    0.89560    1.000
    C14      C        0.72880    0.59330    0.88850    1.000
    C15      C        0.79240    0.78030    0.87160    1.000
    C16      C        0.76190    0.65030    0.96830    1.000
    H8       H        0.76270    0.62480    0.02710    1.000
    O8       O        0.67000    0.30000    0.14280    1.000
    O9       O        0.12450    0.94580    0.86270    1.000
    O10      O        0.56140    0.22570    0.83010    1.000
    O11      O        0.53690    0.24510    0.98040    1.000
    N3       N        0.09330    0.06730    0.86680    1.000
    C17      C        0.27410    0.03270    0.79080    1.000
    H9       H        0.24860    0.00700    0.73190    1.000
    C18      C        0.25480    0.04850    0.96010    1.000
    H10      H        0.21570    0.03110    0.01300    1.000
    C19      C        0.06200    0.97620    0.86630    1.000
    C20      C        0.37140    0.09540    0.80290    1.000
    H11      H        0.41160    0.10920    0.75140    1.000
    C21      C        0.50920    0.20780    0.89560    1.000
    C22      C        0.40670    0.13550    0.88850    1.000
    C23      C        0.21970    0.01210    0.87160    1.000
    C24      C        0.34970    0.11160    0.96830    1.000
    H12      H        0.37520    0.13790    0.02710    1.000
    O12      O        0.70000    0.37000    0.14280    1.000
    O13      O        0.82130    0.94580    0.63730    1.000
    O14      O        0.66430    0.22570    0.66990    1.000
    O15      O        0.70820    0.24510    0.51960    1.000
    N4       N        0.97400    0.06730    0.63320    1.000
    C25      C        0.75860    0.03270    0.70920    1.000
    H13      H        0.75840    0.00700    0.76810    1.000
    C26      C        0.79370    0.04850    0.53990    1.000
    H14      H        0.81540    0.03110    0.48700    1.000
    C27      C        0.91420    0.97620    0.63370    1.000
    C28      C        0.72400    0.09540    0.69710    1.000
    H15      H        0.69760    0.10920    0.74860    1.000
    C29      C        0.69860    0.20780    0.60440    1.000
    C30      C        0.72880    0.13550    0.61150    1.000
    C31      C        0.79240    0.01210    0.62840    1.000
    C32      C        0.76190    0.11160    0.53170    1.000
    H16      H        0.76270    0.13790    0.47290    1.000
    O16      O        0.67000    0.37000    0.35720    1.000
    O17      O        0.12450    0.17870    0.63730    1.000
    O18      O        0.56140    0.33570    0.66990    1.000
    O19      O        0.53690    0.29180    0.51960    1.000
    N5       N        0.09330    0.02600    0.63320    1.000
    C33      C        0.27410    0.24140    0.70920    1.000
    H17      H        0.24860    0.24160    0.76810    1.000
    C34      C        0.25480    0.20630    0.53990    1.000
    H18      H        0.21570    0.18460    0.48700    1.000
    C35      C        0.06200    0.08580    0.63370    1.000
    C36      C        0.37140    0.27600    0.69710    1.000
    H19      H        0.41160    0.30240    0.74860    1.000
    C37      C        0.50920    0.30140    0.60440    1.000
    C38      C        0.40670    0.27120    0.61150    1.000
    C39      C        0.21970    0.20760    0.62840    1.000
    C40      C        0.34970    0.23810    0.53170    1.000
    H20      H        0.37520    0.23730    0.47290    1.000
    O20      O        0.70000    0.33000    0.35720    1.000
    O21      O        0.05420    0.87550    0.63730    1.000
    O22      O        0.77430    0.43860    0.66990    1.000
    O23      O        0.75490    0.46310    0.51960    1.000
    N6       N        0.93270    0.90670    0.63320    1.000
    C41      C        0.96730    0.72590    0.70920    1.000
    H21      H        0.99300    0.75140    0.76810    1.000
    C42      C        0.95150    0.74520    0.53990    1.000
    H22      H        0.96890    0.78430    0.48700    1.000
    C43      C        0.02380    0.93800    0.63370    1.000
    C44      C        0.90460    0.62860    0.69710    1.000
    H23      H        0.89080    0.58840    0.74860    1.000
    C45      C        0.79220    0.49080    0.60440    1.000
    C46      C        0.86450    0.59330    0.61150    1.000
    C47      C        0.98790    0.78030    0.62840    1.000
    C48      C        0.88840    0.65030    0.53170    1.000
    H24      H        0.86210    0.62480    0.47290    1.000
    O24      O        0.63000    0.30000    0.35720    1.000
    Zn1      Zn       0.66667    0.33333    0.75000    1.000
    Zn2      Zn       0.66667    0.33333    0.00231    1.000
    Zn3      Zn       0.66667    0.33333    0.49769    1.000
    C49      C        0.66667    0.33333    0.25000    1.000
    O25      O        0.94580    0.82130    0.13730    1.000
    O26      O        0.22570    0.66430    0.16990    1.000
    O27      O        0.24510    0.70820    0.01960    1.000
    N7       N        0.06730    0.97400    0.13320    1.000
    C50      C        0.03270    0.75860    0.20920    1.000
    H25      H        0.00700    0.75840    0.26810    1.000
    C51      C        0.04850    0.79370    0.03990    1.000
    H26      H        0.03110    0.81540    0.98700    1.000
    C52      C        0.97620    0.91420    0.13370    1.000
    C53      C        0.09540    0.72400    0.19710    1.000
    H27      H        0.10920    0.69760    0.24860    1.000
    C54      C        0.20780    0.69860    0.10440    1.000
    C55      C        0.13550    0.72880    0.11150    1.000
    C56      C        0.01210    0.79240    0.12840    1.000
    C57      C        0.11160    0.76190    0.03170    1.000
    H28      H        0.13790    0.76270    0.97290    1.000
    O28      O        0.37000    0.67000    0.85720    1.000
    O29      O        0.17870    0.12450    0.13730    1.000
    O30      O        0.33570    0.56140    0.16990    1.000
    O31      O        0.29180    0.53690    0.01960    1.000
    N8       N        0.02600    0.09330    0.13320    1.000
    C58      C        0.24140    0.27410    0.20920    1.000
    H29      H        0.24160    0.24860    0.26810    1.000
    C59      C        0.20630    0.25480    0.03990    1.000
    H30      H        0.18460    0.21570    0.98700    1.000
    C60      C        0.08580    0.06200    0.13370    1.000
    C61      C        0.27600    0.37140    0.19710    1.000
    H31      H        0.30240    0.41160    0.24860    1.000
    C62      C        0.30140    0.50920    0.10440    1.000
    C63      C        0.27120    0.40670    0.11150    1.000
    C64      C        0.20760    0.21970    0.12840    1.000
    C65      C        0.23810    0.34970    0.03170    1.000
    H32      H        0.23730    0.37520    0.97290    1.000
    O32      O        0.33000    0.70000    0.85720    1.000
    O33      O        0.87550    0.05420    0.13730    1.000
    O34      O        0.43860    0.77430    0.16990    1.000
    O35      O        0.46310    0.75490    0.01960    1.000
    N9       N        0.90670    0.93270    0.13320    1.000
    C66      C        0.72590    0.96730    0.20920    1.000
    H33      H        0.75140    0.99300    0.26810    1.000
    C67      C        0.74520    0.95150    0.03990    1.000
    H34      H        0.78430    0.96890    0.98700    1.000
    C68      C        0.93800    0.02380    0.13370    1.000
    C69      C        0.62860    0.90460    0.19710    1.000
    H35      H        0.58840    0.89080    0.24860    1.000
    C70      C        0.49080    0.79220    0.10440    1.000
    C71      C        0.59330    0.86450    0.11150    1.000
    C72      C        0.78030    0.98790    0.12840    1.000
    C73      C        0.65030    0.88840    0.03170    1.000
    H36      H        0.62480    0.86210    0.97290    1.000
    O36      O        0.30000    0.63000    0.85720    1.000
    O37      O        0.17870    0.05420    0.36270    1.000
    O38      O        0.33570    0.77430    0.33010    1.000
    O39      O        0.29180    0.75490    0.48040    1.000
    N10      N        0.02600    0.93270    0.36680    1.000
    C74      C        0.24140    0.96730    0.29080    1.000
    H37      H        0.24160    0.99300    0.23190    1.000
    C75      C        0.20630    0.95150    0.46010    1.000
    H38      H        0.18460    0.96890    0.51300    1.000
    C76      C        0.08580    0.02380    0.36630    1.000
    C77      C        0.27600    0.90460    0.30290    1.000
    H39      H        0.30240    0.89080    0.25140    1.000
    C78      C        0.30140    0.79220    0.39560    1.000
    C79      C        0.27120    0.86450    0.38850    1.000
    C80      C        0.20760    0.98790    0.37160    1.000
    C81      C        0.23810    0.88840    0.46830    1.000
    H40      H        0.23730    0.86210    0.52710    1.000
    O40      O        0.33000    0.63000    0.64280    1.000
    O41      O        0.87550    0.82130    0.36270    1.000
    O42      O        0.43860    0.66430    0.33010    1.000
    O43      O        0.46310    0.70820    0.48040    1.000
    N11      N        0.90670    0.97400    0.36680    1.000
    C82      C        0.72590    0.75860    0.29080    1.000
    H41      H        0.75140    0.75840    0.23190    1.000
    C83      C        0.74520    0.79370    0.46010    1.000
    H42      H        0.78430    0.81540    0.51300    1.000
    C84      C        0.93800    0.91420    0.36630    1.000
    C85      C        0.62860    0.72400    0.30290    1.000
    H43      H        0.58840    0.69760    0.25140    1.000
    C86      C        0.49080    0.69860    0.39560    1.000
    C87      C        0.59330    0.72880    0.38850    1.000
    C88      C        0.78030    0.79240    0.37160    1.000
    C89      C        0.65030    0.76190    0.46830    1.000
    H44      H        0.62480    0.76270    0.52710    1.000
    O44      O        0.30000    0.67000    0.64280    1.000
    O45      O        0.94580    0.12450    0.36270    1.000
    O46      O        0.22570    0.56140    0.33010    1.000
    O47      O        0.24510    0.53690    0.48040    1.000
    N12      N        0.06730    0.09330    0.36680    1.000
    C90      C        0.03270    0.27410    0.29080    1.000
    H45      H        0.00700    0.24860    0.23190    1.000
    C91      C        0.04850    0.25480    0.46010    1.000
    H46      H        0.03110    0.21570    0.51300    1.000
    C92      C        0.97620    0.06200    0.36630    1.000
    C93      C        0.09540    0.37140    0.30290    1.000
    H47      H        0.10920    0.41160    0.25140    1.000
    C94      C        0.20780    0.50920    0.39560    1.000
    C95      C        0.13550    0.40670    0.38850    1.000
    C96      C        0.01210    0.21970    0.37160    1.000
    C97      C        0.11160    0.34970    0.46830    1.000
    H48      H        0.13790    0.37520    0.52710    1.000
    O48      O        0.37000    0.70000    0.64280    1.000
    Zn4      Zn       0.33333    0.66667    0.25000    1.000
    Zn5      Zn       0.33333    0.66667    0.99769    1.000
    Zn6      Zn       0.33333    0.66667    0.50231    1.000
    C98      C        0.33333    0.66667    0.75000    1.000
