# CIF file generated by openbabel 3.1.0, see https://openbabel.org
data_I
_chemical_name_common 'image0'
_cell_length_a 9.976
_cell_length_b 10.359
_cell_length_c 12.98
_cell_angle_alpha 90
_cell_angle_beta 90
_cell_angle_gamma 90
_space_group_name_H-M_alt 'P 1'
_space_group_name_Hall 'P 1'
loop_
    _symmetry_equiv_pos_as_xyz
    x,y,z
loop_
    _atom_site_label
    _atom_site_type_symbol
    _atom_site_fract_x
    _atom_site_fract_y
    _atom_site_fract_z
    _atom_site_occupancy
    Zn1      Zn       0.97150    0.20190    0.63520    1.000
    P1       P        0.22640    0.21470    0.49650    1.000
    P2       P        0.88950    0.43990    0.78590    1.000
    O1       O        0.93570    0.30980    0.75190    1.000
    O2       O        0.12200    0.27590    0.56570    1.000
    O3       O        0.99900    0.52590    0.82170    1.000
    O4       O        0.31220    0.32110    0.44940    1.000
    O5       O        0.78470    0.41750    0.86980    1.000
    O6       O        0.81990    0.51370    0.69640    1.000
    O7       O        0.31070    0.11370    0.54790    1.000
    O8       O        0.15090    0.14210    0.40620    1.000
    Zn2      Zn       0.52850    0.79810    0.13520    1.000
    P3       P        0.27360    0.78530    0.99650    1.000
    P4       P        0.61050    0.56010    0.28590    1.000
    O9       O        0.56430    0.69020    0.25190    1.000
    O10      O        0.37800    0.72410    0.06570    1.000
    O11      O        0.50100    0.47410    0.32170    1.000
    O12      O        0.18780    0.67890    0.94940    1.000
    O13      O        0.71530    0.58250    0.36980    1.000
    O14      O        0.68010    0.48630    0.19640    1.000
    O15      O        0.18930    0.88630    0.04790    1.000
    O16      O        0.34910    0.85790    0.90620    1.000
    Zn3      Zn       0.02850    0.70190    0.86480    1.000
    P5       P        0.77360    0.71470    0.00350    1.000
    P6       P        0.11050    0.93990    0.71410    1.000
    O17      O        0.06430    0.80980    0.74810    1.000
    O18      O        0.87800    0.77590    0.93430    1.000
    O19      O        0.00100    0.02590    0.67830    1.000
    O20      O        0.68780    0.82110    0.05060    1.000
    O21      O        0.21530    0.91750    0.63020    1.000
    O22      O        0.18010    0.01370    0.80360    1.000
    O23      O        0.68930    0.61370    0.95210    1.000
    O24      O        0.84910    0.64210    0.09380    1.000
    Zn4      Zn       0.47150    0.29810    0.36480    1.000
    P7       P        0.72640    0.28530    0.50350    1.000
    P8       P        0.38950    0.06010    0.21410    1.000
    O25      O        0.43570    0.19020    0.24810    1.000
    O26      O        0.62200    0.22410    0.43430    1.000
    O27      O        0.49900    0.97410    0.17830    1.000
    O28      O        0.81220    0.17890    0.55060    1.000
    O29      O        0.28470    0.08250    0.13020    1.000
    O30      O        0.31990    0.98630    0.30360    1.000
    O31      O        0.81070    0.38630    0.45210    1.000
    O32      O        0.65090    0.35790    0.59380    1.000
