# CIF file generated by openbabel 3.1.0, see https://openbabel.org
data_I
_chemical_name_common 'image0'
_cell_length_a 21.5765
_cell_length_b 21.5765
_cell_length_c 11.3469
_cell_angle_alpha 90
_cell_angle_beta 90
_cell_angle_gamma 90
_space_group_name_H-M_alt 'P 1'
_space_group_name_Hall 'P 1'
loop_
    _symmetry_equiv_pos_as_xyz
    x,y,z
loop_
    _atom_site_label
    _atom_site_type_symbol
    _atom_site_fract_x
    _atom_site_fract_y
    _atom_site_fract_z
    _atom_site_occupancy
    Sm1      Sm       0.42776    0.93618    0.03058    1.000
    O1       O        0.50522    0.00742    0.11647    1.000
    N1       N        0.43745    0.93805    0.27170    1.000
    C1       C        0.49328    0.05599    0.17770    1.000
    O2       O        0.26566    0.02663    0.53818    1.000
    O3       O        0.51452    0.10749    0.14636    1.000
    C2       C        0.45175    0.05224    0.28340    1.000
    O4       O        0.30853    0.11052    0.61188    1.000
    C3       C        0.43926    0.10811    0.34040    1.000
    H1       H        0.46170    0.14410    0.31800    1.000
    C4       C        0.39543    0.11261    0.42810    1.000
    H2       H        0.38890    0.15060    0.46860    1.000
    O5       O        0.33105    0.92806    0.14817    1.000
    C5       C        0.36112    0.06061    0.45590    1.000
    O6       O        0.28724    0.86938    0.28924    1.000
    C6       C        0.37363    0.00338    0.40310    1.000
    H3       H        0.34960    0.96810    0.42370    1.000
    O7       O        0.50873    0.87496    0.11268    1.000
    C7       C        0.42078    0.99775    0.32110    1.000
    O8       O        0.58463    0.85915    0.24120    1.000
    C8       C        0.30951    0.06793    0.54250    1.000
    C9       C        0.39461    0.88755    0.30090    1.000
    H4       H        0.38890    0.88600    0.38740    1.000
    H5       H        0.41300    0.84770    0.27560    1.000
    C10      C        0.33218    0.89552    0.24240    1.000
    C11      C        0.50162    0.92003    0.30550    1.000
    H6       H        0.50010    0.89610    0.37990    1.000
    H7       H        0.52620    0.95800    0.32020    1.000
    C12      C        0.53396    0.88140    0.21180    1.000
    H8       H        0.23780    0.03950    0.58560    1.000
    Sm2      Sm       0.92776    0.43618    0.53058    1.000
    O9       O        0.00522    0.50742    0.61647    1.000
    N2       N        0.93745    0.43805    0.77170    1.000
    C13      C        0.99328    0.55599    0.67770    1.000
    O10      O        0.76566    0.52663    0.03818    1.000
    O11      O        0.01452    0.60749    0.64636    1.000
    C14      C        0.95175    0.55224    0.78340    1.000
    O12      O        0.80853    0.61052    0.11188    1.000
    C15      C        0.93926    0.60811    0.84040    1.000
    H9       H        0.96170    0.64410    0.81800    1.000
    C16      C        0.89543    0.61261    0.92810    1.000
    H10      H        0.88890    0.65060    0.96860    1.000
    O13      O        0.83105    0.42806    0.64817    1.000
    C17      C        0.86112    0.56061    0.95590    1.000
    O14      O        0.78724    0.36938    0.78924    1.000
    C18      C        0.87363    0.50338    0.90310    1.000
    H11      H        0.84960    0.46810    0.92370    1.000
    O15      O        0.00873    0.37496    0.61268    1.000
    C19      C        0.92078    0.49775    0.82110    1.000
    O16      O        0.08463    0.35915    0.74120    1.000
    C20      C        0.80951    0.56793    0.04250    1.000
    C21      C        0.89461    0.38755    0.80090    1.000
    H12      H        0.88890    0.38600    0.88740    1.000
    H13      H        0.91300    0.34770    0.77560    1.000
    C22      C        0.83218    0.39552    0.74240    1.000
    C23      C        0.00162    0.42003    0.80550    1.000
    H14      H        0.00010    0.39610    0.87990    1.000
    H15      H        0.02620    0.45800    0.82020    1.000
    C24      C        0.03396    0.38140    0.71180    1.000
    H16      H        0.73780    0.53950    0.08560    1.000
    Sm3      Sm       0.07224    0.06382    0.53058    1.000
    O17      O        0.99478    0.99258    0.61647    1.000
    N3       N        0.06255    0.06195    0.77170    1.000
    C25      C        0.00672    0.94401    0.67770    1.000
    O18      O        0.23434    0.97337    0.03818    1.000
    O19      O        0.98548    0.89251    0.64636    1.000
    C26      C        0.04825    0.94776    0.78340    1.000
    O20      O        0.19147    0.88948    0.11188    1.000
    C27      C        0.06074    0.89189    0.84040    1.000
    H17      H        0.03830    0.85590    0.81800    1.000
    C28      C        0.10457    0.88739    0.92810    1.000
    H18      H        0.11110    0.84940    0.96860    1.000
    O21      O        0.16895    0.07194    0.64817    1.000
    C29      C        0.13888    0.93939    0.95590    1.000
    O22      O        0.21276    0.13062    0.78924    1.000
    C30      C        0.12637    0.99662    0.90310    1.000
    H19      H        0.15040    0.03190    0.92370    1.000
    O23      O        0.99127    0.12504    0.61268    1.000
    C31      C        0.07922    0.00225    0.82110    1.000
    O24      O        0.91537    0.14085    0.74120    1.000
    C32      C        0.19049    0.93207    0.04250    1.000
    C33      C        0.10539    0.11245    0.80090    1.000
    H20      H        0.11110    0.11400    0.88740    1.000
    H21      H        0.08700    0.15230    0.77560    1.000
    C34      C        0.16782    0.10448    0.74240    1.000
    C35      C        0.99838    0.07997    0.80550    1.000
    H22      H        0.99990    0.10390    0.87990    1.000
    H23      H        0.97380    0.04200    0.82020    1.000
    C36      C        0.96604    0.11860    0.71180    1.000
    H24      H        0.26220    0.96050    0.08560    1.000
    Sm4      Sm       0.57224    0.56382    0.03058    1.000
    O25      O        0.49478    0.49258    0.11647    1.000
    N4       N        0.56255    0.56195    0.27170    1.000
    C37      C        0.50672    0.44401    0.17770    1.000
    O26      O        0.73434    0.47337    0.53818    1.000
    O27      O        0.48548    0.39251    0.14636    1.000
    C38      C        0.54825    0.44776    0.28340    1.000
    O28      O        0.69147    0.38948    0.61188    1.000
    C39      C        0.56074    0.39189    0.34040    1.000
    H25      H        0.53830    0.35590    0.31800    1.000
    C40      C        0.60457    0.38739    0.42810    1.000
    H26      H        0.61110    0.34940    0.46860    1.000
    O29      O        0.66895    0.57194    0.14817    1.000
    C41      C        0.63888    0.43939    0.45590    1.000
    O30      O        0.71276    0.63062    0.28924    1.000
    C42      C        0.62637    0.49662    0.40310    1.000
    H27      H        0.65040    0.53190    0.42370    1.000
    O31      O        0.49127    0.62504    0.11268    1.000
    C43      C        0.57922    0.50225    0.32110    1.000
    O32      O        0.41537    0.64085    0.24120    1.000
    C44      C        0.69049    0.43207    0.54250    1.000
    C45      C        0.60539    0.61245    0.30090    1.000
    H28      H        0.61110    0.61400    0.38740    1.000
    H29      H        0.58700    0.65230    0.27560    1.000
    C46      C        0.66782    0.60448    0.24240    1.000
    C47      C        0.49838    0.57997    0.30550    1.000
    H30      H        0.49990    0.60390    0.37990    1.000
    H31      H        0.47380    0.54200    0.32020    1.000
    C48      C        0.46604    0.61860    0.21180    1.000
    H32      H        0.76220    0.46050    0.58560    1.000
    Sm5      Sm       0.81382    0.67776    0.28058    1.000
    O33      O        0.74258    0.75522    0.36647    1.000
    N5       N        0.81195    0.68745    0.52170    1.000
    C49      C        0.69401    0.74328    0.42770    1.000
    O34      O        0.72337    0.51566    0.78818    1.000
    O35      O        0.64251    0.76452    0.39636    1.000
    C50      C        0.69776    0.70175    0.53340    1.000
    O36      O        0.63948    0.55853    0.86188    1.000
    C51      C        0.64189    0.68926    0.59040    1.000
    H33      H        0.60590    0.71170    0.56800    1.000
    C52      C        0.63739    0.64543    0.67810    1.000
    H34      H        0.59940    0.63890    0.71860    1.000
    O37      O        0.82194    0.58105    0.39817    1.000
    C53      C        0.68939    0.61112    0.70590    1.000
    O38      O        0.88062    0.53724    0.53924    1.000
    C54      C        0.74662    0.62363    0.65310    1.000
    H35      H        0.78190    0.59960    0.67370    1.000
    O39      O        0.87504    0.75873    0.36268    1.000
    C55      C        0.75225    0.67078    0.57110    1.000
    O40      O        0.89085    0.83463    0.49120    1.000
    C56      C        0.68207    0.55951    0.79250    1.000
    C57      C        0.86245    0.64461    0.55090    1.000
    H36      H        0.86400    0.63890    0.63740    1.000
    H37      H        0.90230    0.66300    0.52560    1.000
    C58      C        0.85448    0.58218    0.49240    1.000
    C59      C        0.82997    0.75162    0.55550    1.000
    H38      H        0.85390    0.75010    0.62990    1.000
    H39      H        0.79200    0.77620    0.57020    1.000
    C60      C        0.86860    0.78396    0.46180    1.000
    H40      H        0.71050    0.48780    0.83560    1.000
    Sm6      Sm       0.31382    0.17776    0.78058    1.000
    O41      O        0.24258    0.25522    0.86647    1.000
    N6       N        0.31195    0.18745    0.02170    1.000
    C61      C        0.19401    0.24328    0.92770    1.000
    O42      O        0.22337    0.01566    0.28818    1.000
    O43      O        0.14251    0.26452    0.89636    1.000
    C62      C        0.19776    0.20175    0.03340    1.000
    O44      O        0.13948    0.05853    0.36188    1.000
    C63      C        0.14189    0.18926    0.09040    1.000
    H41      H        0.10590    0.21170    0.06800    1.000
    C64      C        0.13739    0.14543    0.17810    1.000
    H42      H        0.09940    0.13890    0.21860    1.000
    O45      O        0.32194    0.08105    0.89817    1.000
    C65      C        0.18939    0.11112    0.20590    1.000
    O46      O        0.38062    0.03724    0.03924    1.000
    C66      C        0.24662    0.12363    0.15310    1.000
    H43      H        0.28190    0.09960    0.17370    1.000
    O47      O        0.37504    0.25873    0.86268    1.000
    C67      C        0.25225    0.17078    0.07110    1.000
    O48      O        0.39085    0.33463    0.99120    1.000
    C68      C        0.18207    0.05951    0.29250    1.000
    C69      C        0.36245    0.14461    0.05090    1.000
    H44      H        0.36400    0.13890    0.13740    1.000
    H45      H        0.40230    0.16300    0.02560    1.000
    C70      C        0.35448    0.08218    0.99240    1.000
    C71      C        0.32997    0.25162    0.05550    1.000
    H46      H        0.35390    0.25010    0.12990    1.000
    H47      H        0.29200    0.27620    0.07020    1.000
    C72      C        0.36860    0.28396    0.96180    1.000
    H48      H        0.21050    0.98780    0.33560    1.000
    Sm7      Sm       0.68618    0.32224    0.78058    1.000
    O49      O        0.75742    0.24478    0.86647    1.000
    N7       N        0.68805    0.31255    0.02170    1.000
    C73      C        0.80599    0.25672    0.92770    1.000
    O50      O        0.77663    0.48434    0.28818    1.000
    O51      O        0.85749    0.23548    0.89636    1.000
    C74      C        0.80224    0.29825    0.03340    1.000
    O52      O        0.86052    0.44147    0.36188    1.000
    C75      C        0.85811    0.31074    0.09040    1.000
    H49      H        0.89410    0.28830    0.06800    1.000
    C76      C        0.86261    0.35457    0.17810    1.000
    H50      H        0.90060    0.36110    0.21860    1.000
    O53      O        0.67806    0.41895    0.89817    1.000
    C77      C        0.81061    0.38888    0.20590    1.000
    O54      O        0.61938    0.46276    0.03924    1.000
    C78      C        0.75338    0.37637    0.15310    1.000
    H51      H        0.71810    0.40040    0.17370    1.000
    O55      O        0.62496    0.24127    0.86268    1.000
    C79      C        0.74775    0.32922    0.07110    1.000
    O56      O        0.60915    0.16537    0.99120    1.000
    C80      C        0.81793    0.44049    0.29250    1.000
    C81      C        0.63755    0.35539    0.05090    1.000
    H52      H        0.63600    0.36110    0.13740    1.000
    H53      H        0.59770    0.33700    0.02560    1.000
    C82      C        0.64552    0.41782    0.99240    1.000
    C83      C        0.67003    0.24838    0.05550    1.000
    H54      H        0.64610    0.24990    0.12990    1.000
    H55      H        0.70800    0.22380    0.07020    1.000
    C84      C        0.63140    0.21604    0.96180    1.000
    H56      H        0.78950    0.51220    0.33560    1.000
    Sm8      Sm       0.18618    0.82224    0.28058    1.000
    O57      O        0.25742    0.74478    0.36647    1.000
    N8       N        0.18805    0.81255    0.52170    1.000
    C85      C        0.30599    0.75672    0.42770    1.000
    O58      O        0.27663    0.98434    0.78818    1.000
    O59      O        0.35749    0.73548    0.39636    1.000
    C86      C        0.30224    0.79825    0.53340    1.000
    O60      O        0.36052    0.94147    0.86188    1.000
    C87      C        0.35811    0.81074    0.59040    1.000
    H57      H        0.39410    0.78830    0.56800    1.000
    C88      C        0.36261    0.85457    0.67810    1.000
    H58      H        0.40060    0.86110    0.71860    1.000
    O61      O        0.17806    0.91895    0.39817    1.000
    C89      C        0.31061    0.88888    0.70590    1.000
    O62      O        0.11938    0.96276    0.53924    1.000
    C90      C        0.25338    0.87637    0.65310    1.000
    H59      H        0.21810    0.90040    0.67370    1.000
    O63      O        0.12496    0.74127    0.36268    1.000
    C91      C        0.24775    0.82922    0.57110    1.000
    O64      O        0.10915    0.66537    0.49120    1.000
    C92      C        0.31793    0.94049    0.79250    1.000
    C93      C        0.13755    0.85539    0.55090    1.000
    H60      H        0.13600    0.86110    0.63740    1.000
    H61      H        0.09770    0.83700    0.52560    1.000
    C94      C        0.14552    0.91782    0.49240    1.000
    C95      C        0.17003    0.74838    0.55550    1.000
    H62      H        0.14610    0.74990    0.62990    1.000
    H63      H        0.20800    0.72380    0.57020    1.000
    C96      C        0.13140    0.71604    0.46180    1.000
    H64      H        0.28950    0.01220    0.83560    1.000
    Sm9      Sm       0.57224    0.06382    0.96942    1.000
    O65      O        0.49478    0.99258    0.88353    1.000
    N9       N        0.56255    0.06195    0.72830    1.000
    C97      C        0.50672    0.94401    0.82230    1.000
    O66      O        0.73434    0.97337    0.46182    1.000
    O67      O        0.48548    0.89251    0.85364    1.000
    C98      C        0.54825    0.94776    0.71660    1.000
    O68      O        0.69147    0.88948    0.38812    1.000
    C99      C        0.56074    0.89189    0.65960    1.000
    H65      H        0.53830    0.85590    0.68200    1.000
    C100     C        0.60457    0.88739    0.57190    1.000
    H66      H        0.61110    0.84940    0.53140    1.000
    O69      O        0.66895    0.07194    0.85183    1.000
    C101     C        0.63888    0.93939    0.54410    1.000
    O70      O        0.71276    0.13062    0.71076    1.000
    C102     C        0.62637    0.99662    0.59690    1.000
    H67      H        0.65040    0.03190    0.57630    1.000
    O71      O        0.49127    0.12504    0.88732    1.000
    C103     C        0.57922    0.00225    0.67890    1.000
    O72      O        0.41537    0.14085    0.75880    1.000
    C104     C        0.69049    0.93207    0.45750    1.000
    C105     C        0.60539    0.11245    0.69910    1.000
    H68      H        0.61110    0.11400    0.61260    1.000
    H69      H        0.58700    0.15230    0.72440    1.000
    C106     C        0.66782    0.10448    0.75760    1.000
    C107     C        0.49838    0.07997    0.69450    1.000
    H70      H        0.49990    0.10390    0.62010    1.000
    H71      H        0.47380    0.04200    0.67980    1.000
    C108     C        0.46604    0.11860    0.78820    1.000
    H72      H        0.76220    0.96050    0.41440    1.000
    Sm10     Sm       0.07224    0.56382    0.46942    1.000
    O73      O        0.99478    0.49258    0.38353    1.000
    N10      N        0.06255    0.56195    0.22830    1.000
    C109     C        0.00672    0.44401    0.32230    1.000
    O74      O        0.23434    0.47337    0.96182    1.000
    O75      O        0.98548    0.39251    0.35364    1.000
    C110     C        0.04825    0.44776    0.21660    1.000
    O76      O        0.19147    0.38948    0.88812    1.000
    C111     C        0.06074    0.39189    0.15960    1.000
    H73      H        0.03830    0.35590    0.18200    1.000
    C112     C        0.10457    0.38739    0.07190    1.000
    H74      H        0.11110    0.34940    0.03140    1.000
    O77      O        0.16895    0.57194    0.35183    1.000
    C113     C        0.13888    0.43939    0.04410    1.000
    O78      O        0.21276    0.63062    0.21076    1.000
    C114     C        0.12637    0.49662    0.09690    1.000
    H75      H        0.15040    0.53190    0.07630    1.000
    O79      O        0.99127    0.62504    0.38732    1.000
    C115     C        0.07922    0.50225    0.17890    1.000
    O80      O        0.91537    0.64085    0.25880    1.000
    C116     C        0.19049    0.43207    0.95750    1.000
    C117     C        0.10539    0.61245    0.19910    1.000
    H76      H        0.11110    0.61400    0.11260    1.000
    H77      H        0.08700    0.65230    0.22440    1.000
    C118     C        0.16782    0.60448    0.25760    1.000
    C119     C        0.99838    0.57997    0.19450    1.000
    H78      H        0.99990    0.60390    0.12010    1.000
    H79      H        0.97380    0.54200    0.17980    1.000
    C120     C        0.96604    0.61860    0.28820    1.000
    H80      H        0.26220    0.46050    0.91440    1.000
    Sm11     Sm       0.92776    0.93618    0.46942    1.000
    O81      O        0.00522    0.00742    0.38353    1.000
    N11      N        0.93745    0.93805    0.22830    1.000
    C121     C        0.99328    0.05599    0.32230    1.000
    O82      O        0.76566    0.02663    0.96182    1.000
    O83      O        0.01452    0.10749    0.35364    1.000
    C122     C        0.95175    0.05224    0.21660    1.000
    O84      O        0.80853    0.11052    0.88812    1.000
    C123     C        0.93926    0.10811    0.15960    1.000
    H81      H        0.96170    0.14410    0.18200    1.000
    C124     C        0.89543    0.11261    0.07190    1.000
    H82      H        0.88890    0.15060    0.03140    1.000
    O85      O        0.83105    0.92806    0.35183    1.000
    C125     C        0.86112    0.06061    0.04410    1.000
    O86      O        0.78724    0.86938    0.21076    1.000
    C126     C        0.87363    0.00338    0.09690    1.000
    H83      H        0.84960    0.96810    0.07630    1.000
    O87      O        0.00873    0.87496    0.38732    1.000
    C127     C        0.92078    0.99775    0.17890    1.000
    O88      O        0.08463    0.85915    0.25880    1.000
    C128     C        0.80951    0.06793    0.95750    1.000
    C129     C        0.89461    0.88755    0.19910    1.000
    H84      H        0.88890    0.88600    0.11260    1.000
    H85      H        0.91300    0.84770    0.22440    1.000
    C130     C        0.83218    0.89552    0.25760    1.000
    C131     C        0.00162    0.92003    0.19450    1.000
    H86      H        0.00010    0.89610    0.12010    1.000
    H87      H        0.02620    0.95800    0.17980    1.000
    C132     C        0.03396    0.88140    0.28820    1.000
    H88      H        0.73780    0.03950    0.91440    1.000
    Sm12     Sm       0.42776    0.43618    0.96942    1.000
    O89      O        0.50522    0.50742    0.88353    1.000
    N12      N        0.43745    0.43805    0.72830    1.000
    C133     C        0.49328    0.55599    0.82230    1.000
    O90      O        0.26566    0.52663    0.46182    1.000
    O91      O        0.51452    0.60749    0.85364    1.000
    C134     C        0.45175    0.55224    0.71660    1.000
    O92      O        0.30853    0.61052    0.38812    1.000
    C135     C        0.43926    0.60811    0.65960    1.000
    H89      H        0.46170    0.64410    0.68200    1.000
    C136     C        0.39543    0.61261    0.57190    1.000
    H90      H        0.38890    0.65060    0.53140    1.000
    O93      O        0.33105    0.42806    0.85183    1.000
    C137     C        0.36112    0.56061    0.54410    1.000
    O94      O        0.28724    0.36938    0.71076    1.000
    C138     C        0.37363    0.50338    0.59690    1.000
    H91      H        0.34960    0.46810    0.57630    1.000
    O95      O        0.50873    0.37496    0.88732    1.000
    C139     C        0.42078    0.49775    0.67890    1.000
    O96      O        0.58463    0.35915    0.75880    1.000
    C140     C        0.30951    0.56793    0.45750    1.000
    C141     C        0.39461    0.38755    0.69910    1.000
    H92      H        0.38890    0.38600    0.61260    1.000
    H93      H        0.41300    0.34770    0.72440    1.000
    C142     C        0.33218    0.39552    0.75760    1.000
    C143     C        0.50162    0.42003    0.69450    1.000
    H94      H        0.50010    0.39610    0.62010    1.000
    H95      H        0.52620    0.45800    0.67980    1.000
    C144     C        0.53396    0.38140    0.78820    1.000
    H96      H        0.23780    0.53950    0.41440    1.000
    Sm13     Sm       0.18618    0.32224    0.71942    1.000
    O97      O        0.25742    0.24478    0.63353    1.000
    N13      N        0.18805    0.31255    0.47830    1.000
    C145     C        0.30599    0.25672    0.57230    1.000
    O98      O        0.27663    0.48434    0.21182    1.000
    O99      O        0.35749    0.23548    0.60364    1.000
    C146     C        0.30224    0.29825    0.46660    1.000
    O100     O        0.36052    0.44147    0.13812    1.000
    C147     C        0.35811    0.31074    0.40960    1.000
    H97      H        0.39410    0.28830    0.43200    1.000
    C148     C        0.36261    0.35457    0.32190    1.000
    H98      H        0.40060    0.36110    0.28140    1.000
    O101     O        0.17806    0.41895    0.60183    1.000
    C149     C        0.31061    0.38888    0.29410    1.000
    O102     O        0.11938    0.46276    0.46076    1.000
    C150     C        0.25338    0.37637    0.34690    1.000
    H99      H        0.21810    0.40040    0.32630    1.000
    O103     O        0.12496    0.24127    0.63732    1.000
    C151     C        0.24775    0.32922    0.42890    1.000
    O104     O        0.10915    0.16537    0.50880    1.000
    C152     C        0.31793    0.44049    0.20750    1.000
    C153     C        0.13755    0.35539    0.44910    1.000
    H100     H        0.13600    0.36110    0.36260    1.000
    H101     H        0.09770    0.33700    0.47440    1.000
    C154     C        0.14552    0.41782    0.50760    1.000
    C155     C        0.17003    0.24838    0.44450    1.000
    H102     H        0.14610    0.24990    0.37010    1.000
    H103     H        0.20800    0.22380    0.42980    1.000
    C156     C        0.13140    0.21604    0.53820    1.000
    H104     H        0.28950    0.51220    0.16440    1.000
    Sm14     Sm       0.68618    0.82224    0.21942    1.000
    O105     O        0.75742    0.74478    0.13353    1.000
    N14      N        0.68805    0.81255    0.97830    1.000
    C157     C        0.80599    0.75672    0.07230    1.000
    O106     O        0.77663    0.98434    0.71182    1.000
    O107     O        0.85749    0.73548    0.10364    1.000
    C158     C        0.80224    0.79825    0.96660    1.000
    O108     O        0.86052    0.94147    0.63812    1.000
    C159     C        0.85811    0.81074    0.90960    1.000
    H105     H        0.89410    0.78830    0.93200    1.000
    C160     C        0.86261    0.85457    0.82190    1.000
    H106     H        0.90060    0.86110    0.78140    1.000
    O109     O        0.67806    0.91895    0.10183    1.000
    C161     C        0.81061    0.88888    0.79410    1.000
    O110     O        0.61938    0.96276    0.96076    1.000
    C162     C        0.75338    0.87637    0.84690    1.000
    H107     H        0.71810    0.90040    0.82630    1.000
    O111     O        0.62496    0.74127    0.13732    1.000
    C163     C        0.74775    0.82922    0.92890    1.000
    O112     O        0.60915    0.66537    0.00880    1.000
    C164     C        0.81793    0.94049    0.70750    1.000
    C165     C        0.63755    0.85539    0.94910    1.000
    H108     H        0.63600    0.86110    0.86260    1.000
    H109     H        0.59770    0.83700    0.97440    1.000
    C166     C        0.64552    0.91782    0.00760    1.000
    C167     C        0.67003    0.74838    0.94450    1.000
    H110     H        0.64610    0.74990    0.87010    1.000
    H111     H        0.70800    0.72380    0.92980    1.000
    C168     C        0.63140    0.71604    0.03820    1.000
    H112     H        0.78950    0.01220    0.66440    1.000
    Sm15     Sm       0.31382    0.67776    0.21942    1.000
    O113     O        0.24258    0.75522    0.13353    1.000
    N15      N        0.31195    0.68745    0.97830    1.000
    C169     C        0.19401    0.74328    0.07230    1.000
    O114     O        0.22337    0.51566    0.71182    1.000
    O115     O        0.14251    0.76452    0.10364    1.000
    C170     C        0.19776    0.70175    0.96660    1.000
    O116     O        0.13948    0.55853    0.63812    1.000
    C171     C        0.14189    0.68926    0.90960    1.000
    H113     H        0.10590    0.71170    0.93200    1.000
    C172     C        0.13739    0.64543    0.82190    1.000
    H114     H        0.09940    0.63890    0.78140    1.000
    O117     O        0.32194    0.58105    0.10183    1.000
    C173     C        0.18939    0.61112    0.79410    1.000
    O118     O        0.38062    0.53724    0.96076    1.000
    C174     C        0.24662    0.62363    0.84690    1.000
    H115     H        0.28190    0.59960    0.82630    1.000
    O119     O        0.37504    0.75873    0.13732    1.000
    C175     C        0.25225    0.67078    0.92890    1.000
    O120     O        0.39085    0.83463    0.00880    1.000
    C176     C        0.18207    0.55951    0.70750    1.000
    C177     C        0.36245    0.64461    0.94910    1.000
    H116     H        0.36400    0.63890    0.86260    1.000
    H117     H        0.40230    0.66300    0.97440    1.000
    C178     C        0.35448    0.58218    0.00760    1.000
    C179     C        0.32997    0.75162    0.94450    1.000
    H118     H        0.35390    0.75010    0.87010    1.000
    H119     H        0.29200    0.77620    0.92980    1.000
    C180     C        0.36860    0.78396    0.03820    1.000
    H120     H        0.21050    0.48780    0.66440    1.000
    Sm16     Sm       0.81382    0.17776    0.71942    1.000
    O121     O        0.74258    0.25522    0.63353    1.000
    N16      N        0.81195    0.18745    0.47830    1.000
    C181     C        0.69401    0.24328    0.57230    1.000
    O122     O        0.72337    0.01566    0.21182    1.000
    O123     O        0.64251    0.26452    0.60364    1.000
    C182     C        0.69776    0.20175    0.46660    1.000
    O124     O        0.63948    0.05853    0.13812    1.000
    C183     C        0.64189    0.18926    0.40960    1.000
    H121     H        0.60590    0.21170    0.43200    1.000
    C184     C        0.63739    0.14543    0.32190    1.000
    H122     H        0.59940    0.13890    0.28140    1.000
    O125     O        0.82194    0.08105    0.60183    1.000
    C185     C        0.68939    0.11112    0.29410    1.000
    O126     O        0.88062    0.03724    0.46076    1.000
    C186     C        0.74662    0.12363    0.34690    1.000
    H123     H        0.78190    0.09960    0.32630    1.000
    O127     O        0.87504    0.25873    0.63732    1.000
    C187     C        0.75225    0.17078    0.42890    1.000
    O128     O        0.89085    0.33463    0.50880    1.000
    C188     C        0.68207    0.05951    0.20750    1.000
    C189     C        0.86245    0.14461    0.44910    1.000
    H124     H        0.86400    0.13890    0.36260    1.000
    H125     H        0.90230    0.16300    0.47440    1.000
    C190     C        0.85448    0.08218    0.50760    1.000
    C191     C        0.82997    0.25162    0.44450    1.000
    H126     H        0.85390    0.25010    0.37010    1.000
    H127     H        0.79200    0.27620    0.42980    1.000
    C192     C        0.86860    0.28396    0.53820    1.000
    H128     H        0.71050    0.98780    0.16440    1.000
