# CIF file generated by openbabel 3.1.0, see https://openbabel.org
data_I
_chemical_name_common 'image0'
_cell_length_a 8.3734
_cell_length_b 10.574
_cell_length_c 14.3077
_cell_angle_alpha 101.478
_cell_angle_beta 103.12
_cell_angle_gamma 102.247
_space_group_name_H-M_alt 'P 1'
_space_group_name_Hall 'P 1'
loop_
    _symmetry_equiv_pos_as_xyz
    x,y,z
loop_
    _atom_site_label
    _atom_site_type_symbol
    _atom_site_fract_x
    _atom_site_fract_y
    _atom_site_fract_z
    _atom_site_occupancy
    Y1       Y        0.65664    0.66015    0.17072    1.000
    O1       O        0.57780    0.82860    0.26190    1.000
    O2       O        0.72850    0.00210    0.39170    1.000
    O3       O        0.65430    0.44940    0.09558    1.000
    O4       O        0.46440    0.28470    0.97256    1.000
    O5       O        0.86560    0.86430    0.19330    1.000
    O6       O        0.88160    0.69310    0.08238    1.000
    O7       O        0.90880    0.64700    0.28734    1.000
    O8       O        0.66590    0.57510    0.31856    1.000
    C1       C        0.62530    0.05020    0.23820    1.000
    C2       C        0.49870    0.01200    0.14840    1.000
    H1       H        0.42720    0.92530    0.12630    1.000
    C3       C        0.47840    0.10280    0.09150    1.000
    H2       H        0.39140    0.07640    0.03230    1.000
    C4       C        0.58580    0.23230    0.12130    1.000
    C5       C        0.71460    0.27000    0.21130    1.000
    H3       H        0.78930    0.35540    0.23210    1.000
    C6       C        0.73150    0.18080    0.26990    1.000
    H4       H        0.81430    0.20830    0.33080    1.000
    C7       C        0.64850    0.95480    0.30280    1.000
    C8       C        0.56630    0.33010    0.05850    1.000
    C9       C        0.96160    0.91290    0.05730    1.000
    C10      C        0.03070    0.87460    0.98090    1.000
    H5       H        0.05150    0.79070    0.96790    1.000
    C11      C        0.93120    0.03880    0.07620    1.000
    H6       H        0.88480    0.06460    0.12780    1.000
    C12      C        0.90430    0.81780    0.11520    1.000
    C13      C        0.91540    0.54370    0.42180    1.000
    C14      C        0.09030    0.55900    0.44320    1.000
    H7       H        0.15150    0.59890    0.40510    1.000
    C15      C        0.82650    0.48410    0.47990    1.000
    H8       H        0.70970    0.47330    0.46660    1.000
    C16      C        0.82640    0.59170    0.33850    1.000
    Y2       Y        0.34336    0.33985    0.82928    1.000
    O9       O        0.42220    0.17140    0.73810    1.000
    O10      O        0.27150    0.99790    0.60830    1.000
    O11      O        0.34570    0.55060    0.90442    1.000
    O12      O        0.53560    0.71530    0.02744    1.000
    O13      O        0.13440    0.13570    0.80670    1.000
    O14      O        0.11840    0.30690    0.91762    1.000
    O15      O        0.09120    0.35300    0.71266    1.000
    O16      O        0.33410    0.42490    0.68144    1.000
    C17      C        0.37470    0.94980    0.76180    1.000
    C18      C        0.50130    0.98800    0.85160    1.000
    H9       H        0.57280    0.07470    0.87370    1.000
    C19      C        0.52160    0.89720    0.90850    1.000
    H10      H        0.60860    0.92360    0.96770    1.000
    C20      C        0.41420    0.76770    0.87870    1.000
    C21      C        0.28540    0.73000    0.78870    1.000
    H11      H        0.21070    0.64460    0.76790    1.000
    C22      C        0.26850    0.81920    0.73010    1.000
    H12      H        0.18570    0.79170    0.66920    1.000
    C23      C        0.35150    0.04520    0.69720    1.000
    C24      C        0.43370    0.66990    0.94150    1.000
    C25      C        0.03840    0.08710    0.94270    1.000
    C26      C        0.96930    0.12540    0.01910    1.000
    H13      H        0.94850    0.20930    0.03210    1.000
    C27      C        0.06880    0.96120    0.92380    1.000
    H14      H        0.11520    0.93540    0.87220    1.000
    C28      C        0.09570    0.18220    0.88480    1.000
    C29      C        0.08460    0.45630    0.57820    1.000
    C30      C        0.90970    0.44100    0.55680    1.000
    H15      H        0.84850    0.40110    0.59490    1.000
    C31      C        0.17350    0.51590    0.52010    1.000
    H16      H        0.29030    0.52670    0.53340    1.000
    C32      C        0.17360    0.40830    0.66150    1.000
