# CIF file generated by openbabel 3.1.0, see https://openbabel.org
data_I
_chemical_name_common 'image0'
_cell_length_a 20.171
_cell_length_b 20.171
_cell_length_c 26.197
_cell_angle_alpha 90
_cell_angle_beta 90
_cell_angle_gamma 120
_space_group_name_H-M_alt 'P 1'
_space_group_name_Hall 'P 1'
loop_
    _symmetry_equiv_pos_as_xyz
    x,y,z
loop_
    _atom_site_label
    _atom_site_type_symbol
    _atom_site_fract_x
    _atom_site_fract_y
    _atom_site_fract_z
    _atom_site_occupancy
    O1       O        0.05838    0.10985    0.61408    1.000
    O2       O        0.99365    0.08378    0.54160    1.000
    O3       O        0.32279    0.49983    0.69112    1.000
    O4       O        0.35089    0.59946    0.64177    1.000
    O5       O        0.27247    0.57639    0.55713    1.000
    C1       C        0.08139    0.21373    0.56153    1.000
    C2       C        0.13240    0.26478    0.59568    1.000
    H1       H        0.14250    0.24640    0.62640    1.000
    C3       C        0.17036    0.34399    0.58637    1.000
    C4       C        0.22188    0.39765    0.62097    1.000
    H2       H        0.23280    0.38000    0.65170    1.000
    C5       C        0.25726    0.47476    0.61215    1.000
    C6       C        0.24191    0.50222    0.56535    1.000
    C7       C        0.19146    0.45082    0.53080    1.000
    H3       H        0.18050    0.46910    0.50040    1.000
    C8       C        0.15560    0.37145    0.53956    1.000
    C9       C        0.10210    0.31600    0.50457    1.000
    H4       H        0.09170    0.33290    0.47330    1.000
    C10      C        0.06615    0.24017    0.51484    1.000
    H5       H        0.03080    0.20450    0.49100    1.000
    C11      C        0.04160    0.13058    0.57250    1.000
    C12      C        0.31223    0.52811    0.65036    1.000
    C13      C        0.96343    0.92049    0.72036    1.000
    H6       H        0.99180    0.89560    0.70760    1.000
    H7       H        0.91020    0.89130    0.70750    1.000
    O6       O        0.89015    0.94853    0.61408    1.000
    O7       O        0.91622    0.90987    0.54160    1.000
    O8       O        0.50017    0.82296    0.69112    1.000
    O9       O        0.40054    0.75143    0.64177    1.000
    O10      O        0.42361    0.69608    0.55713    1.000
    C14      C        0.78627    0.86766    0.56153    1.000
    C15      C        0.73522    0.86762    0.59568    1.000
    H8       H        0.75360    0.89610    0.62640    1.000
    C16      C        0.65601    0.82637    0.58637    1.000
    C17      C        0.60235    0.82423    0.62097    1.000
    H9       H        0.62000    0.85280    0.65170    1.000
    C18      C        0.52524    0.78250    0.61215    1.000
    C19      C        0.49778    0.73969    0.56535    1.000
    C20      C        0.54918    0.74064    0.53080    1.000
    H10      H        0.53090    0.71140    0.50040    1.000
    C21      C        0.62855    0.78415    0.53956    1.000
    C22      C        0.68400    0.78610    0.50457    1.000
    H11      H        0.66710    0.75880    0.47330    1.000
    C23      C        0.75983    0.82598    0.51484    1.000
    H12      H        0.79550    0.82630    0.49100    1.000
    C24      C        0.86942    0.91102    0.57250    1.000
    C25      C        0.47189    0.78412    0.65036    1.000
    C26      C        0.07951    0.04294    0.72036    1.000
    H13      H        0.10440    0.09620    0.70760    1.000
    H14      H        0.10870    0.01890    0.70750    1.000
    O11      O        0.05147    0.94162    0.61408    1.000
    O12      O        0.09013    0.00635    0.54160    1.000
    O13      O        0.17704    0.67721    0.69112    1.000
    O14      O        0.24857    0.64911    0.64177    1.000
    O15      O        0.30392    0.72753    0.55713    1.000
    C27      C        0.13234    0.91861    0.56153    1.000
    C28      C        0.13238    0.86760    0.59568    1.000
    H15      H        0.10390    0.85750    0.62640    1.000
    C29      C        0.17363    0.82964    0.58637    1.000
    C30      C        0.17577    0.77812    0.62097    1.000
    H16      H        0.14720    0.76720    0.65170    1.000
    C31      C        0.21750    0.74274    0.61215    1.000
    C32      C        0.26031    0.75809    0.56535    1.000
    C33      C        0.25936    0.80854    0.53080    1.000
    H17      H        0.28860    0.81950    0.50040    1.000
    C34      C        0.21585    0.84440    0.53956    1.000
    C35      C        0.21390    0.89790    0.50457    1.000
    H18      H        0.24120    0.90830    0.47330    1.000
    C36      C        0.17402    0.93385    0.51484    1.000
    H19      H        0.17370    0.96920    0.49100    1.000
    C37      C        0.08898    0.95840    0.57250    1.000
    C38      C        0.21588    0.68777    0.65036    1.000
    C39      C        0.95706    0.03657    0.72036    1.000
    H20      H        0.90380    0.00820    0.70760    1.000
    H21      H        0.98110    0.08980    0.70750    1.000
    O16      O        0.94162    0.89015    0.11408    1.000
    O17      O        0.00635    0.91622    0.04160    1.000
    O18      O        0.67721    0.50017    0.19112    1.000
    O19      O        0.64911    0.40054    0.14177    1.000
    O20      O        0.72753    0.42361    0.05713    1.000
    C40      C        0.91861    0.78627    0.06153    1.000
    C41      C        0.86760    0.73522    0.09568    1.000
    H22      H        0.85750    0.75360    0.12640    1.000
    C42      C        0.82964    0.65601    0.08637    1.000
    C43      C        0.77812    0.60235    0.12097    1.000
    H23      H        0.76720    0.62000    0.15170    1.000
    C44      C        0.74274    0.52524    0.11215    1.000
    C45      C        0.75809    0.49778    0.06535    1.000
    C46      C        0.80854    0.54918    0.03080    1.000
    H24      H        0.81950    0.53090    0.00040    1.000
    C47      C        0.84440    0.62855    0.03956    1.000
    C48      C        0.89790    0.68400    0.00457    1.000
    H25      H        0.90830    0.66710    0.97330    1.000
    C49      C        0.93385    0.75983    0.01484    1.000
    H26      H        0.96920    0.79550    0.99100    1.000
    C50      C        0.95840    0.86942    0.07250    1.000
    C51      C        0.68777    0.47189    0.15036    1.000
    C52      C        0.03657    0.07951    0.22036    1.000
    H27      H        0.00820    0.10440    0.20760    1.000
    H28      H        0.08980    0.10870    0.20750    1.000
    O21      O        0.10985    0.05147    0.11408    1.000
    O22      O        0.08378    0.09013    0.04160    1.000
    O23      O        0.49983    0.17704    0.19112    1.000
    O24      O        0.59946    0.24857    0.14177    1.000
    O25      O        0.57639    0.30392    0.05713    1.000
    C53      C        0.21373    0.13234    0.06153    1.000
    C54      C        0.26478    0.13238    0.09568    1.000
    H29      H        0.24640    0.10390    0.12640    1.000
    C55      C        0.34399    0.17363    0.08637    1.000
    C56      C        0.39765    0.17577    0.12097    1.000
    H30      H        0.38000    0.14720    0.15170    1.000
    C57      C        0.47476    0.21750    0.11215    1.000
    C58      C        0.50222    0.26031    0.06535    1.000
    C59      C        0.45082    0.25936    0.03080    1.000
    H31      H        0.46910    0.28860    0.00040    1.000
    C60      C        0.37145    0.21585    0.03956    1.000
    C61      C        0.31600    0.21390    0.00457    1.000
    H32      H        0.33290    0.24120    0.97330    1.000
    C62      C        0.24017    0.17402    0.01484    1.000
    H33      H        0.20450    0.17370    0.99100    1.000
    C63      C        0.13058    0.08898    0.07250    1.000
    C64      C        0.52811    0.21588    0.15036    1.000
    C65      C        0.92049    0.95706    0.22036    1.000
    H34      H        0.89560    0.90380    0.20760    1.000
    H35      H        0.89130    0.98110    0.20750    1.000
    O26      O        0.94853    0.05838    0.11408    1.000
    O27      O        0.90987    0.99365    0.04160    1.000
    O28      O        0.82296    0.32279    0.19112    1.000
    O29      O        0.75143    0.35089    0.14177    1.000
    O30      O        0.69608    0.27247    0.05713    1.000
    C66      C        0.86766    0.08139    0.06153    1.000
    C67      C        0.86762    0.13240    0.09568    1.000
    H36      H        0.89610    0.14250    0.12640    1.000
    C68      C        0.82637    0.17036    0.08637    1.000
    C69      C        0.82423    0.22188    0.12097    1.000
    H37      H        0.85280    0.23280    0.15170    1.000
    C70      C        0.78250    0.25726    0.11215    1.000
    C71      C        0.73969    0.24191    0.06535    1.000
    C72      C        0.74064    0.19146    0.03080    1.000
    H38      H        0.71140    0.18050    0.00040    1.000
    C73      C        0.78415    0.15560    0.03956    1.000
    C74      C        0.78610    0.10210    0.00457    1.000
    H39      H        0.75880    0.09170    0.97330    1.000
    C75      C        0.82598    0.06615    0.01484    1.000
    H40      H        0.82630    0.03080    0.99100    1.000
    C76      C        0.91102    0.04160    0.07250    1.000
    C77      C        0.78412    0.31223    0.15036    1.000
    C78      C        0.04294    0.96343    0.22036    1.000
    H41      H        0.09620    0.99180    0.20760    1.000
    H42      H        0.01890    0.91020    0.20750    1.000
    O31      O        0.94162    0.89015    0.38592    1.000
    O32      O        0.00635    0.91622    0.45840    1.000
    O33      O        0.67721    0.50017    0.30888    1.000
    O34      O        0.64911    0.40054    0.35823    1.000
    O35      O        0.72753    0.42361    0.44287    1.000
    C79      C        0.91861    0.78627    0.43847    1.000
    C80      C        0.86760    0.73522    0.40432    1.000
    H43      H        0.85750    0.75360    0.37360    1.000
    C81      C        0.82964    0.65601    0.41363    1.000
    C82      C        0.77812    0.60235    0.37903    1.000
    H44      H        0.76720    0.62000    0.34830    1.000
    C83      C        0.74274    0.52524    0.38785    1.000
    C84      C        0.75809    0.49778    0.43465    1.000
    C85      C        0.80854    0.54918    0.46920    1.000
    H45      H        0.81950    0.53090    0.49960    1.000
    C86      C        0.84440    0.62855    0.46044    1.000
    C87      C        0.89790    0.68400    0.49543    1.000
    H46      H        0.90830    0.66710    0.52670    1.000
    C88      C        0.93385    0.75983    0.48516    1.000
    H47      H        0.96920    0.79550    0.50900    1.000
    C89      C        0.95840    0.86942    0.42750    1.000
    C90      C        0.68777    0.47189    0.34964    1.000
    C91      C        0.03657    0.07951    0.27964    1.000
    H48      H        0.00820    0.10440    0.29240    1.000
    H49      H        0.08980    0.10870    0.29250    1.000
    O36      O        0.10985    0.05147    0.38592    1.000
    O37      O        0.08378    0.09013    0.45840    1.000
    O38      O        0.49983    0.17704    0.30888    1.000
    O39      O        0.59946    0.24857    0.35823    1.000
    O40      O        0.57639    0.30392    0.44287    1.000
    C92      C        0.21373    0.13234    0.43847    1.000
    C93      C        0.26478    0.13238    0.40432    1.000
    H50      H        0.24640    0.10390    0.37360    1.000
    C94      C        0.34399    0.17363    0.41363    1.000
    C95      C        0.39765    0.17577    0.37903    1.000
    H51      H        0.38000    0.14720    0.34830    1.000
    C96      C        0.47476    0.21750    0.38785    1.000
    C97      C        0.50222    0.26031    0.43465    1.000
    C98      C        0.45082    0.25936    0.46920    1.000
    H52      H        0.46910    0.28860    0.49960    1.000
    C99      C        0.37145    0.21585    0.46044    1.000
    C100     C        0.31600    0.21390    0.49543    1.000
    H53      H        0.33290    0.24120    0.52670    1.000
    C101     C        0.24017    0.17402    0.48516    1.000
    H54      H        0.20450    0.17370    0.50900    1.000
    C102     C        0.13058    0.08898    0.42750    1.000
    C103     C        0.52811    0.21588    0.34964    1.000
    C104     C        0.92049    0.95706    0.27964    1.000
    H55      H        0.89560    0.90380    0.29240    1.000
    H56      H        0.89130    0.98110    0.29250    1.000
    O41      O        0.94853    0.05838    0.38592    1.000
    O42      O        0.90987    0.99365    0.45840    1.000
    O43      O        0.82296    0.32279    0.30888    1.000
    O44      O        0.75143    0.35089    0.35823    1.000
    O45      O        0.69608    0.27247    0.44287    1.000
    C105     C        0.86766    0.08139    0.43847    1.000
    C106     C        0.86762    0.13240    0.40432    1.000
    H57      H        0.89610    0.14250    0.37360    1.000
    C107     C        0.82637    0.17036    0.41363    1.000
    C108     C        0.82423    0.22188    0.37903    1.000
    H58      H        0.85280    0.23280    0.34830    1.000
    C109     C        0.78250    0.25726    0.38785    1.000
    C110     C        0.73969    0.24191    0.43465    1.000
    C111     C        0.74064    0.19146    0.46920    1.000
    H59      H        0.71140    0.18050    0.49960    1.000
    C112     C        0.78415    0.15560    0.46044    1.000
    C113     C        0.78610    0.10210    0.49543    1.000
    H60      H        0.75880    0.09170    0.52670    1.000
    C114     C        0.82598    0.06615    0.48516    1.000
    H61      H        0.82630    0.03080    0.50900    1.000
    C115     C        0.91102    0.04160    0.42750    1.000
    C116     C        0.78412    0.31223    0.34964    1.000
    C117     C        0.04294    0.96343    0.27964    1.000
    H62      H        0.09620    0.99180    0.29240    1.000
    H63      H        0.01890    0.91020    0.29250    1.000
    O46      O        0.05838    0.10985    0.88592    1.000
    O47      O        0.99365    0.08378    0.95840    1.000
    O48      O        0.32279    0.49983    0.80888    1.000
    O49      O        0.35089    0.59946    0.85823    1.000
    O50      O        0.27247    0.57639    0.94287    1.000
    C118     C        0.08139    0.21373    0.93847    1.000
    C119     C        0.13240    0.26478    0.90432    1.000
    H64      H        0.14250    0.24640    0.87360    1.000
    C120     C        0.17036    0.34399    0.91363    1.000
    C121     C        0.22188    0.39765    0.87903    1.000
    H65      H        0.23280    0.38000    0.84830    1.000
    C122     C        0.25726    0.47476    0.88785    1.000
    C123     C        0.24191    0.50222    0.93465    1.000
    C124     C        0.19146    0.45082    0.96920    1.000
    H66      H        0.18050    0.46910    0.99960    1.000
    C125     C        0.15560    0.37145    0.96044    1.000
    C126     C        0.10210    0.31600    0.99543    1.000
    H67      H        0.09170    0.33290    0.02670    1.000
    C127     C        0.06615    0.24017    0.98516    1.000
    H68      H        0.03080    0.20450    0.00900    1.000
    C128     C        0.04160    0.13058    0.92750    1.000
    C129     C        0.31223    0.52811    0.84964    1.000
    C130     C        0.96343    0.92049    0.77964    1.000
    H69      H        0.99180    0.89560    0.79240    1.000
    H70      H        0.91020    0.89130    0.79250    1.000
    O51      O        0.89015    0.94853    0.88592    1.000
    O52      O        0.91622    0.90987    0.95840    1.000
    O53      O        0.50017    0.82296    0.80888    1.000
    O54      O        0.40054    0.75143    0.85823    1.000
    O55      O        0.42361    0.69608    0.94287    1.000
    C131     C        0.78627    0.86766    0.93847    1.000
    C132     C        0.73522    0.86762    0.90432    1.000
    H71      H        0.75360    0.89610    0.87360    1.000
    C133     C        0.65601    0.82637    0.91363    1.000
    C134     C        0.60235    0.82423    0.87903    1.000
    H72      H        0.62000    0.85280    0.84830    1.000
    C135     C        0.52524    0.78250    0.88785    1.000
    C136     C        0.49778    0.73969    0.93465    1.000
    C137     C        0.54918    0.74064    0.96920    1.000
    H73      H        0.53090    0.71140    0.99960    1.000
    C138     C        0.62855    0.78415    0.96044    1.000
    C139     C        0.68400    0.78610    0.99543    1.000
    H74      H        0.66710    0.75880    0.02670    1.000
    C140     C        0.75983    0.82598    0.98516    1.000
    H75      H        0.79550    0.82630    0.00900    1.000
    C141     C        0.86942    0.91102    0.92750    1.000
    C142     C        0.47189    0.78412    0.84964    1.000
    C143     C        0.07951    0.04294    0.77964    1.000
    H76      H        0.10440    0.09620    0.79240    1.000
    H77      H        0.10870    0.01890    0.79250    1.000
    O56      O        0.05147    0.94162    0.88592    1.000
    O57      O        0.09013    0.00635    0.95840    1.000
    O58      O        0.17704    0.67721    0.80888    1.000
    O59      O        0.24857    0.64911    0.85823    1.000
    O60      O        0.30392    0.72753    0.94287    1.000
    C144     C        0.13234    0.91861    0.93847    1.000
    C145     C        0.13238    0.86760    0.90432    1.000
    H78      H        0.10390    0.85750    0.87360    1.000
    C146     C        0.17363    0.82964    0.91363    1.000
    C147     C        0.17577    0.77812    0.87903    1.000
    H79      H        0.14720    0.76720    0.84830    1.000
    C148     C        0.21750    0.74274    0.88785    1.000
    C149     C        0.26031    0.75809    0.93465    1.000
    C150     C        0.25936    0.80854    0.96920    1.000
    H80      H        0.28860    0.81950    0.99960    1.000
    C151     C        0.21585    0.84440    0.96044    1.000
    C152     C        0.21390    0.89790    0.99543    1.000
    H81      H        0.24120    0.90830    0.02670    1.000
    C153     C        0.17402    0.93385    0.98516    1.000
    H82      H        0.17370    0.96920    0.00900    1.000
    C154     C        0.08898    0.95840    0.92750    1.000
    C155     C        0.21588    0.68777    0.84964    1.000
    C156     C        0.95706    0.03657    0.77964    1.000
    H83      H        0.90380    0.00820    0.79240    1.000
    H84      H        0.98110    0.08980    0.79250    1.000
    Zn1      Zn       0.00000    0.00000    0.62405    1.000
    N1       N        0.00000    0.00000    0.70179    1.000
    Zn2      Zn       0.00000    0.00000    0.12405    1.000
    N2       N        0.00000    0.00000    0.20179    1.000
    Zn3      Zn       0.00000    0.00000    0.37595    1.000
    N3       N        0.00000    0.00000    0.29821    1.000
    Zn4      Zn       0.00000    0.00000    0.87595    1.000
    N4       N        0.00000    0.00000    0.79821    1.000
    Zn5      Zn       0.00000    0.00000    0.50000    1.000
    Zn6      Zn       0.00000    0.00000    0.00000    1.000
    Zn7      Zn       0.37811    0.56537    0.75000    1.000
    O61      O        0.39786    0.66881    0.75000    1.000
    Zn8      Zn       0.43463    0.81274    0.75000    1.000
    O62      O        0.33119    0.72905    0.75000    1.000
    Zn9      Zn       0.18726    0.62189    0.75000    1.000
    O63      O        0.27095    0.60214    0.75000    1.000
    Zn10     Zn       0.62189    0.43463    0.25000    1.000
    O64      O        0.60214    0.33119    0.25000    1.000
    Zn11     Zn       0.56537    0.18726    0.25000    1.000
    O65      O        0.66881    0.27095    0.25000    1.000
    Zn12     Zn       0.81274    0.37811    0.25000    1.000
    O66      O        0.72905    0.39786    0.25000    1.000
    Ti1      Ti       0.33333    0.66667    0.59294    1.000
    Ti2      Ti       0.66667    0.33333    0.09294    1.000
    Ti3      Ti       0.66667    0.33333    0.40706    1.000
    Ti4      Ti       0.33333    0.66667    0.90706    1.000
    C157     C        0.33333    0.66667    0.75000    1.000
    C158     C        0.66667    0.33333    0.25000    1.000
