# CIF file generated by openbabel 3.1.0, see https://openbabel.org
data_I
_chemical_name_common 'image0'
_cell_length_a 28.4784
_cell_length_b 28.4784
_cell_length_c 13.6334
_cell_angle_alpha 90
_cell_angle_beta 90
_cell_angle_gamma 90
_space_group_name_H-M_alt 'P 1'
_space_group_name_Hall 'P 1'
loop_
    _symmetry_equiv_pos_as_xyz
    x,y,z
loop_
    _atom_site_label
    _atom_site_type_symbol
    _atom_site_fract_x
    _atom_site_fract_y
    _atom_site_fract_z
    _atom_site_occupancy
    Sr1      Sr       0.19060    0.50219    0.62309    1.000
    O1       O        0.25970    0.45390    0.67710    1.000
    O2       O        0.13220    0.55450    0.52640    1.000
    O3       O        0.29800    0.49010    0.31760    1.000
    O4       O        0.32930    0.42930    0.23890    1.000
    O5       O        0.31070    0.41120    0.75550    1.000
    C1       C        0.29500    0.42880    0.67960    1.000
    C2       C        0.13030    0.59140    0.46600    1.000
    C3       C        0.32060    0.41800    0.58440    1.000
    N1       N        0.08950    0.60690    0.50400    1.000
    C4       C        0.30870    0.43960    0.49830    1.000
    C5       C        0.35500    0.38370    0.58650    1.000
    C6       C        0.07300    0.57700    0.59500    1.000
    C7       C        0.31810    0.45020    0.31560    1.000
    H1       H        0.28570    0.46280    0.49810    1.000
    C8       C        0.33020    0.42730    0.41280    1.000
    C9       C        0.37590    0.37120    0.49880    1.000
    H2       H        0.36380    0.36950    0.64510    1.000
    H3       H        0.03900    0.57780    0.59950    1.000
    H4       H        0.08590    0.58970    0.65430    1.000
    H5       H        0.08280    0.54500    0.58770    1.000
    C10      C        0.36420    0.39250    0.41180    1.000
    C11      C        0.41160    0.33550    0.49960    1.000
    H6       H        0.37870    0.38380    0.35350    1.000
    C12      C        0.45810    0.35270    0.50380    1.000
    C13      C        0.39750    0.28930    0.50130    1.000
    C14      C        0.49600    0.31440    0.50460    1.000
    O6       O        0.46860    0.39360    0.50650    1.000
    C15      C        0.43440    0.25330    0.50360    1.000
    O7       O        0.35640    0.27940    0.50050    1.000
    C16      C        0.48190    0.26700    0.50370    1.000
    C17      C        0.54210    0.32780    0.50470    1.000
    C18      C        0.42430    0.20780    0.50250    1.000
    H7       H        0.55070    0.35930    0.50620    1.000
    H8       H        0.39280    0.19920    0.50000    1.000
    H9       H        0.16400    0.55600    0.48700    1.000
    C19      C        0.12240    0.55840    0.43000    1.000
    O8       O        0.00890    0.58000    0.26400    1.000
    N2       N        0.08760    0.53530    0.39110    1.000
    C20      C        0.05590    0.50130    0.41800    1.000
    C21      C        0.06800    0.53560    0.28400    1.000
    H10      H        0.06560    0.48750    0.47940    1.000
    H11      H        0.05460    0.47740    0.36870    1.000
    H12      H        0.02540    0.51510    0.42610    1.000
    H13      H        0.04370    0.55860    0.27880    1.000
    H14      H        0.05600    0.50520    0.26830    1.000
    H15      H        0.09320    0.54340    0.23950    1.000
    Sr2      Sr       0.69060    0.00219    0.12309    1.000
    O9       O        0.75970    0.95390    0.17710    1.000
    O10      O        0.63220    0.05450    0.02640    1.000
    O11      O        0.79800    0.99010    0.81760    1.000
    O12      O        0.82930    0.92930    0.73890    1.000
    O13      O        0.81070    0.91120    0.25550    1.000
    C22      C        0.79500    0.92880    0.17960    1.000
    C23      C        0.63030    0.09140    0.96600    1.000
    C24      C        0.82060    0.91800    0.08440    1.000
    N3       N        0.58950    0.10690    0.00400    1.000
    C25      C        0.80870    0.93960    0.99830    1.000
    C26      C        0.85500    0.88370    0.08650    1.000
    C27      C        0.57300    0.07700    0.09500    1.000
    C28      C        0.81810    0.95020    0.81560    1.000
    H16      H        0.78570    0.96280    0.99810    1.000
    C29      C        0.83020    0.92730    0.91280    1.000
    C30      C        0.87590    0.87120    0.99880    1.000
    H17      H        0.86380    0.86950    0.14510    1.000
    H18      H        0.53900    0.07780    0.09950    1.000
    H19      H        0.58590    0.08970    0.15430    1.000
    H20      H        0.58280    0.04500    0.08770    1.000
    C31      C        0.86420    0.89250    0.91180    1.000
    C32      C        0.91160    0.83550    0.99960    1.000
    H21      H        0.87870    0.88380    0.85350    1.000
    C33      C        0.95810    0.85270    0.00380    1.000
    C34      C        0.89750    0.78930    0.00130    1.000
    C35      C        0.99600    0.81440    0.00460    1.000
    O14      O        0.96860    0.89360    0.00650    1.000
    C36      C        0.93440    0.75330    0.00360    1.000
    O15      O        0.85640    0.77940    0.00050    1.000
    C37      C        0.98190    0.76700    0.00370    1.000
    C38      C        0.04210    0.82780    0.00470    1.000
    C39      C        0.92430    0.70780    0.00250    1.000
    H22      H        0.05070    0.85930    0.00620    1.000
    H23      H        0.89280    0.69920    0.00000    1.000
    H24      H        0.66400    0.05600    0.98700    1.000
    C40      C        0.62240    0.05840    0.93000    1.000
    O16      O        0.50890    0.08000    0.76400    1.000
    N4       N        0.58760    0.03530    0.89110    1.000
    C41      C        0.55590    0.00130    0.91800    1.000
    C42      C        0.56800    0.03560    0.78400    1.000
    H25      H        0.56560    0.98750    0.97940    1.000
    H26      H        0.55460    0.97740    0.86870    1.000
    H27      H        0.52540    0.01510    0.92610    1.000
    H28      H        0.54370    0.05860    0.77880    1.000
    H29      H        0.55600    0.00520    0.76830    1.000
    H30      H        0.59320    0.04340    0.73950    1.000
    Sr3      Sr       0.30940    0.49781    0.12309    1.000
    O17      O        0.24030    0.54610    0.17710    1.000
    O18      O        0.36780    0.44550    0.02640    1.000
    O19      O        0.20200    0.50990    0.81760    1.000
    O20      O        0.17070    0.57070    0.73890    1.000
    O21      O        0.18930    0.58880    0.25550    1.000
    C43      C        0.20500    0.57120    0.17960    1.000
    C44      C        0.36970    0.40860    0.96600    1.000
    C45      C        0.17940    0.58200    0.08440    1.000
    N5       N        0.41050    0.39310    0.00400    1.000
    C46      C        0.19130    0.56040    0.99830    1.000
    C47      C        0.14500    0.61630    0.08650    1.000
    C48      C        0.42700    0.42300    0.09500    1.000
    C49      C        0.18190    0.54980    0.81560    1.000
    H31      H        0.21430    0.53720    0.99810    1.000
    C50      C        0.16980    0.57270    0.91280    1.000
    C51      C        0.12410    0.62880    0.99880    1.000
    H32      H        0.13620    0.63050    0.14510    1.000
    H33      H        0.46100    0.42220    0.09950    1.000
    H34      H        0.41410    0.41030    0.15430    1.000
    H35      H        0.41720    0.45500    0.08770    1.000
    C52      C        0.13580    0.60750    0.91180    1.000
    C53      C        0.08840    0.66450    0.99960    1.000
    H36      H        0.12130    0.61620    0.85350    1.000
    C54      C        0.04190    0.64730    0.00380    1.000
    C55      C        0.10250    0.71070    0.00130    1.000
    C56      C        0.00400    0.68560    0.00460    1.000
    O22      O        0.03140    0.60640    0.00650    1.000
    C57      C        0.06560    0.74670    0.00360    1.000
    O23      O        0.14360    0.72060    0.00050    1.000
    C58      C        0.01810    0.73300    0.00370    1.000
    C59      C        0.95790    0.67220    0.00470    1.000
    C60      C        0.07570    0.79220    0.00250    1.000
    H37      H        0.94930    0.64070    0.00620    1.000
    H38      H        0.10720    0.80080    0.00000    1.000
    H39      H        0.33600    0.44400    0.98700    1.000
    C61      C        0.37760    0.44160    0.93000    1.000
    O24      O        0.49110    0.42000    0.76400    1.000
    N6       N        0.41240    0.46470    0.89110    1.000
    C62      C        0.44410    0.49870    0.91800    1.000
    C63      C        0.43200    0.46440    0.78400    1.000
    H40      H        0.43440    0.51250    0.97940    1.000
    H41      H        0.44540    0.52260    0.86870    1.000
    H42      H        0.47460    0.48490    0.92610    1.000
    H43      H        0.45630    0.44140    0.77880    1.000
    H44      H        0.44400    0.49480    0.76830    1.000
    H45      H        0.40680    0.45660    0.73950    1.000
    Sr4      Sr       0.80940    0.99781    0.62309    1.000
    O25      O        0.74030    0.04610    0.67710    1.000
    O26      O        0.86780    0.94550    0.52640    1.000
    O27      O        0.70200    0.00990    0.31760    1.000
    O28      O        0.67070    0.07070    0.23890    1.000
    O29      O        0.68930    0.08880    0.75550    1.000
    C64      C        0.70500    0.07120    0.67960    1.000
    C65      C        0.86970    0.90860    0.46600    1.000
    C66      C        0.67940    0.08200    0.58440    1.000
    N7       N        0.91050    0.89310    0.50400    1.000
    C67      C        0.69130    0.06040    0.49830    1.000
    C68      C        0.64500    0.11630    0.58650    1.000
    C69      C        0.92700    0.92300    0.59500    1.000
    C70      C        0.68190    0.04980    0.31560    1.000
    H46      H        0.71430    0.03720    0.49810    1.000
    C71      C        0.66980    0.07270    0.41280    1.000
    C72      C        0.62410    0.12880    0.49880    1.000
    H47      H        0.63620    0.13050    0.64510    1.000
    H48      H        0.96100    0.92220    0.59950    1.000
    H49      H        0.91410    0.91030    0.65430    1.000
    H50      H        0.91720    0.95500    0.58770    1.000
    C73      C        0.63580    0.10750    0.41180    1.000
    C74      C        0.58840    0.16450    0.49960    1.000
    H51      H        0.62130    0.11620    0.35350    1.000
    C75      C        0.54190    0.14730    0.50380    1.000
    C76      C        0.60250    0.21070    0.50130    1.000
    C77      C        0.50400    0.18560    0.50460    1.000
    O30      O        0.53140    0.10640    0.50650    1.000
    C78      C        0.56560    0.24670    0.50360    1.000
    O31      O        0.64360    0.22060    0.50050    1.000
    C79      C        0.51810    0.23300    0.50370    1.000
    C80      C        0.45790    0.17220    0.50470    1.000
    C81      C        0.57570    0.29220    0.50250    1.000
    H52      H        0.44930    0.14070    0.50620    1.000
    H53      H        0.60720    0.30080    0.50000    1.000
    H54      H        0.83600    0.94400    0.48700    1.000
    C82      C        0.87760    0.94160    0.43000    1.000
    O32      O        0.99110    0.92000    0.26400    1.000
    N8       N        0.91240    0.96470    0.39110    1.000
    C83      C        0.94410    0.99870    0.41800    1.000
    C84      C        0.93200    0.96440    0.28400    1.000
    H55      H        0.93440    0.01250    0.47940    1.000
    H56      H        0.94540    0.02260    0.36870    1.000
    H57      H        0.97460    0.98490    0.42610    1.000
    H58      H        0.95630    0.94140    0.27880    1.000
    H59      H        0.94400    0.99480    0.26830    1.000
    H60      H        0.90680    0.95660    0.23950    1.000
    Sr5      Sr       0.24781    0.44060    0.87309    1.000
    O33      O        0.29610    0.50970    0.92710    1.000
    O34      O        0.19550    0.38220    0.77640    1.000
    O35      O        0.25990    0.54800    0.56760    1.000
    O36      O        0.32070    0.57930    0.48890    1.000
    O37      O        0.33880    0.56070    0.00550    1.000
    C85      C        0.32120    0.54500    0.92960    1.000
    C86      C        0.15860    0.38030    0.71600    1.000
    C87      C        0.33200    0.57060    0.83440    1.000
    N9       N        0.14310    0.33950    0.75400    1.000
    C88      C        0.31040    0.55870    0.74830    1.000
    C89      C        0.36630    0.60500    0.83650    1.000
    C90      C        0.17300    0.32300    0.84500    1.000
    C91      C        0.29980    0.56810    0.56560    1.000
    H61      H        0.28720    0.53570    0.74810    1.000
    C92      C        0.32270    0.58020    0.66280    1.000
    C93      C        0.37880    0.62590    0.74880    1.000
    H62      H        0.38050    0.61380    0.89510    1.000
    H63      H        0.17220    0.28900    0.84950    1.000
    H64      H        0.16030    0.33590    0.90430    1.000
    H65      H        0.20500    0.33280    0.83770    1.000
    C94      C        0.35750    0.61420    0.66180    1.000
    C95      C        0.41450    0.66160    0.74960    1.000
    H66      H        0.36620    0.62870    0.60350    1.000
    C96      C        0.39730    0.70810    0.75380    1.000
    C97      C        0.46070    0.64750    0.75130    1.000
    C98      C        0.43560    0.74600    0.75460    1.000
    O38      O        0.35640    0.71860    0.75650    1.000
    C99      C        0.49670    0.68440    0.75360    1.000
    O39      O        0.47060    0.60640    0.75050    1.000
    C100     C        0.48300    0.73190    0.75370    1.000
    C101     C        0.42220    0.79210    0.75470    1.000
    C102     C        0.54220    0.67430    0.75250    1.000
    H67      H        0.39070    0.80070    0.75620    1.000
    H68      H        0.55080    0.64280    0.75000    1.000
    H69      H        0.19400    0.41400    0.73700    1.000
    C103     C        0.19160    0.37240    0.68000    1.000
    O40      O        0.17000    0.25890    0.51400    1.000
    N10      N        0.21470    0.33760    0.64110    1.000
    C104     C        0.24870    0.30590    0.66800    1.000
    C105     C        0.21440    0.31800    0.53400    1.000
    H70      H        0.26250    0.31560    0.72940    1.000
    H71      H        0.27260    0.30460    0.61870    1.000
    H72      H        0.23490    0.27540    0.67610    1.000
    H73      H        0.19140    0.29370    0.52880    1.000
    H74      H        0.24480    0.30600    0.51830    1.000
    H75      H        0.20660    0.34320    0.48950    1.000
    Sr6      Sr       0.74781    0.94060    0.37309    1.000
    O41      O        0.79610    0.00970    0.42710    1.000
    O42      O        0.69550    0.88220    0.27640    1.000
    O43      O        0.75990    0.04800    0.06760    1.000
    O44      O        0.82070    0.07930    0.98890    1.000
    O45      O        0.83880    0.06070    0.50550    1.000
    C106     C        0.82120    0.04500    0.42960    1.000
    C107     C        0.65860    0.88030    0.21600    1.000
    C108     C        0.83200    0.07060    0.33440    1.000
    N11      N        0.64310    0.83950    0.25400    1.000
    C109     C        0.81040    0.05870    0.24830    1.000
    C110     C        0.86630    0.10500    0.33650    1.000
    C111     C        0.67300    0.82300    0.34500    1.000
    C112     C        0.79980    0.06810    0.06560    1.000
    H76      H        0.78720    0.03570    0.24810    1.000
    C113     C        0.82270    0.08020    0.16280    1.000
    C114     C        0.87880    0.12590    0.24880    1.000
    H77      H        0.88050    0.11380    0.39510    1.000
    H78      H        0.67220    0.78900    0.34950    1.000
    H79      H        0.66030    0.83590    0.40430    1.000
    H80      H        0.70500    0.83280    0.33770    1.000
    C115     C        0.85750    0.11420    0.16180    1.000
    C116     C        0.91450    0.16160    0.24960    1.000
    H81      H        0.86620    0.12870    0.10350    1.000
    C117     C        0.89730    0.20810    0.25380    1.000
    C118     C        0.96070    0.14750    0.25130    1.000
    C119     C        0.93560    0.24600    0.25460    1.000
    O46      O        0.85640    0.21860    0.25650    1.000
    C120     C        0.99670    0.18440    0.25360    1.000
    O47      O        0.97060    0.10640    0.25050    1.000
    C121     C        0.98300    0.23190    0.25370    1.000
    C122     C        0.92220    0.29210    0.25470    1.000
    C123     C        0.04220    0.17430    0.25250    1.000
    H82      H        0.89070    0.30070    0.25620    1.000
    H83      H        0.05080    0.14280    0.25000    1.000
    H84      H        0.69400    0.91400    0.23700    1.000
    C124     C        0.69160    0.87240    0.18000    1.000
    O48      O        0.67000    0.75890    0.01400    1.000
    N12      N        0.71470    0.83760    0.14110    1.000
    C125     C        0.74870    0.80590    0.16800    1.000
    C126     C        0.71440    0.81800    0.03400    1.000
    H85      H        0.76250    0.81560    0.22940    1.000
    H86      H        0.77260    0.80460    0.11870    1.000
    H87      H        0.73490    0.77540    0.17610    1.000
    H88      H        0.69140    0.79370    0.02880    1.000
    H89      H        0.74480    0.80600    0.01830    1.000
    H90      H        0.70660    0.84320    0.98950    1.000
    Sr7      Sr       0.25219    0.55940    0.37309    1.000
    O49      O        0.20390    0.49030    0.42710    1.000
    O50      O        0.30450    0.61780    0.27640    1.000
    O51      O        0.24010    0.45200    0.06760    1.000
    O52      O        0.17930    0.42070    0.98890    1.000
    O53      O        0.16120    0.43930    0.50550    1.000
    C127     C        0.17880    0.45500    0.42960    1.000
    C128     C        0.34140    0.61970    0.21600    1.000
    C129     C        0.16800    0.42940    0.33440    1.000
    N13      N        0.35690    0.66050    0.25400    1.000
    C130     C        0.18960    0.44130    0.24830    1.000
    C131     C        0.13370    0.39500    0.33650    1.000
    C132     C        0.32700    0.67700    0.34500    1.000
    C133     C        0.20020    0.43190    0.06560    1.000
    H91      H        0.21280    0.46430    0.24810    1.000
    C134     C        0.17730    0.41980    0.16280    1.000
    C135     C        0.12120    0.37410    0.24880    1.000
    H92      H        0.11950    0.38620    0.39510    1.000
    H93      H        0.32780    0.71100    0.34950    1.000
    H94      H        0.33970    0.66410    0.40430    1.000
    H95      H        0.29500    0.66720    0.33770    1.000
    C136     C        0.14250    0.38580    0.16180    1.000
    C137     C        0.08550    0.33840    0.24960    1.000
    H96      H        0.13380    0.37130    0.10350    1.000
    C138     C        0.10270    0.29190    0.25380    1.000
    C139     C        0.03930    0.35250    0.25130    1.000
    C140     C        0.06440    0.25400    0.25460    1.000
    O54      O        0.14360    0.28140    0.25650    1.000
    C141     C        0.00330    0.31560    0.25360    1.000
    O55      O        0.02940    0.39360    0.25050    1.000
    C142     C        0.01700    0.26810    0.25370    1.000
    C143     C        0.07780    0.20790    0.25470    1.000
    C144     C        0.95780    0.32570    0.25250    1.000
    H97      H        0.10930    0.19930    0.25620    1.000
    H98      H        0.94920    0.35720    0.25000    1.000
    H99      H        0.30600    0.58600    0.23700    1.000
    C145     C        0.30840    0.62760    0.18000    1.000
    O56      O        0.33000    0.74110    0.01400    1.000
    N14      N        0.28530    0.66240    0.14110    1.000
    C146     C        0.25130    0.69410    0.16800    1.000
    C147     C        0.28560    0.68200    0.03400    1.000
    H100     H        0.23750    0.68440    0.22940    1.000
    H101     H        0.22740    0.69540    0.11870    1.000
    H102     H        0.26510    0.72460    0.17610    1.000
    H103     H        0.30860    0.70630    0.02880    1.000
    H104     H        0.25520    0.69400    0.01830    1.000
    H105     H        0.29340    0.65680    0.98950    1.000
    Sr8      Sr       0.75219    0.05940    0.87309    1.000
    O57      O        0.70390    0.99030    0.92710    1.000
    O58      O        0.80450    0.11780    0.77640    1.000
    O59      O        0.74010    0.95200    0.56760    1.000
    O60      O        0.67930    0.92070    0.48890    1.000
    O61      O        0.66120    0.93930    0.00550    1.000
    C148     C        0.67880    0.95500    0.92960    1.000
    C149     C        0.84140    0.11970    0.71600    1.000
    C150     C        0.66800    0.92940    0.83440    1.000
    N15      N        0.85690    0.16050    0.75400    1.000
    C151     C        0.68960    0.94130    0.74830    1.000
    C152     C        0.63370    0.89500    0.83650    1.000
    C153     C        0.82700    0.17700    0.84500    1.000
    C154     C        0.70020    0.93190    0.56560    1.000
    H106     H        0.71280    0.96430    0.74810    1.000
    C155     C        0.67730    0.91980    0.66280    1.000
    C156     C        0.62120    0.87410    0.74880    1.000
    H107     H        0.61950    0.88620    0.89510    1.000
    H108     H        0.82780    0.21100    0.84950    1.000
    H109     H        0.83970    0.16410    0.90430    1.000
    H110     H        0.79500    0.16720    0.83770    1.000
    C157     C        0.64250    0.88580    0.66180    1.000
    C158     C        0.58550    0.83840    0.74960    1.000
    H111     H        0.63380    0.87130    0.60350    1.000
    C159     C        0.60270    0.79190    0.75380    1.000
    C160     C        0.53930    0.85250    0.75130    1.000
    C161     C        0.56440    0.75400    0.75460    1.000
    O62      O        0.64360    0.78140    0.75650    1.000
    C162     C        0.50330    0.81560    0.75360    1.000
    O63      O        0.52940    0.89360    0.75050    1.000
    C163     C        0.51700    0.76810    0.75370    1.000
    C164     C        0.57780    0.70790    0.75470    1.000
    C165     C        0.45780    0.82570    0.75250    1.000
    H112     H        0.60930    0.69930    0.75620    1.000
    H113     H        0.44920    0.85720    0.75000    1.000
    H114     H        0.80600    0.08600    0.73700    1.000
    C166     C        0.80840    0.12760    0.68000    1.000
    O64      O        0.83000    0.24110    0.51400    1.000
    N16      N        0.78530    0.16240    0.64110    1.000
    C167     C        0.75130    0.19410    0.66800    1.000
    C168     C        0.78560    0.18200    0.53400    1.000
    H115     H        0.73750    0.18440    0.72940    1.000
    H116     H        0.72740    0.19540    0.61870    1.000
    H117     H        0.76510    0.22460    0.67610    1.000
    H118     H        0.80860    0.20630    0.52880    1.000
    H119     H        0.75520    0.19400    0.51830    1.000
    H120     H        0.79340    0.15680    0.48950    1.000
    Sr9      Sr       0.80940    0.49781    0.37691    1.000
    O65      O        0.74030    0.54610    0.32290    1.000
    O66      O        0.86780    0.44550    0.47360    1.000
    O67      O        0.70200    0.50990    0.68240    1.000
    O68      O        0.67070    0.57070    0.76110    1.000
    O69      O        0.68930    0.58880    0.24450    1.000
    C169     C        0.70500    0.57120    0.32040    1.000
    C170     C        0.86970    0.40860    0.53400    1.000
    C171     C        0.67940    0.58200    0.41560    1.000
    N17      N        0.91050    0.39310    0.49600    1.000
    C172     C        0.69130    0.56040    0.50170    1.000
    C173     C        0.64500    0.61630    0.41350    1.000
    C174     C        0.92700    0.42300    0.40500    1.000
    C175     C        0.68190    0.54980    0.68440    1.000
    H121     H        0.71430    0.53720    0.50190    1.000
    C176     C        0.66980    0.57270    0.58720    1.000
    C177     C        0.62410    0.62880    0.50120    1.000
    H122     H        0.63620    0.63050    0.35490    1.000
    H123     H        0.96100    0.42220    0.40050    1.000
    H124     H        0.91410    0.41030    0.34570    1.000
    H125     H        0.91720    0.45500    0.41230    1.000
    C178     C        0.63580    0.60750    0.58820    1.000
    C179     C        0.58840    0.66450    0.50040    1.000
    H126     H        0.62130    0.61620    0.64650    1.000
    C180     C        0.54190    0.64730    0.49620    1.000
    C181     C        0.60250    0.71070    0.49870    1.000
    C182     C        0.50400    0.68560    0.49540    1.000
    O70      O        0.53140    0.60640    0.49350    1.000
    C183     C        0.56560    0.74670    0.49640    1.000
    O71      O        0.64360    0.72060    0.49950    1.000
    C184     C        0.51810    0.73300    0.49630    1.000
    C185     C        0.45790    0.67220    0.49530    1.000
    C186     C        0.57570    0.79220    0.49750    1.000
    H127     H        0.44930    0.64070    0.49380    1.000
    H128     H        0.60720    0.80080    0.50000    1.000
    H129     H        0.83600    0.44400    0.51300    1.000
    C187     C        0.87760    0.44160    0.57000    1.000
    O72      O        0.99110    0.42000    0.73600    1.000
    N18      N        0.91240    0.46470    0.60890    1.000
    C188     C        0.94410    0.49870    0.58200    1.000
    C189     C        0.93200    0.46440    0.71600    1.000
    H130     H        0.93440    0.51250    0.52060    1.000
    H131     H        0.94540    0.52260    0.63130    1.000
    H132     H        0.97460    0.48490    0.57390    1.000
    H133     H        0.95630    0.44140    0.72120    1.000
    H134     H        0.94400    0.49480    0.73170    1.000
    H135     H        0.90680    0.45660    0.76050    1.000
    Sr10     Sr       0.30940    0.99781    0.87691    1.000
    O73      O        0.24030    0.04610    0.82290    1.000
    O74      O        0.36780    0.94550    0.97360    1.000
    O75      O        0.20200    0.00990    0.18240    1.000
    O76      O        0.17070    0.07070    0.26110    1.000
    O77      O        0.18930    0.08880    0.74450    1.000
    C190     C        0.20500    0.07120    0.82040    1.000
    C191     C        0.36970    0.90860    0.03400    1.000
    C192     C        0.17940    0.08200    0.91560    1.000
    N19      N        0.41050    0.89310    0.99600    1.000
    C193     C        0.19130    0.06040    0.00170    1.000
    C194     C        0.14500    0.11630    0.91350    1.000
    C195     C        0.42700    0.92300    0.90500    1.000
    C196     C        0.18190    0.04980    0.18440    1.000
    H136     H        0.21430    0.03720    0.00190    1.000
    C197     C        0.16980    0.07270    0.08720    1.000
    C198     C        0.12410    0.12880    0.00120    1.000
    H137     H        0.13620    0.13050    0.85490    1.000
    H138     H        0.46100    0.92220    0.90050    1.000
    H139     H        0.41410    0.91030    0.84570    1.000
    H140     H        0.41720    0.95500    0.91230    1.000
    C199     C        0.13580    0.10750    0.08820    1.000
    C200     C        0.08840    0.16450    0.00040    1.000
    H141     H        0.12130    0.11620    0.14650    1.000
    C201     C        0.04190    0.14730    0.99620    1.000
    C202     C        0.10250    0.21070    0.99870    1.000
    C203     C        0.00400    0.18560    0.99540    1.000
    O78      O        0.03140    0.10640    0.99350    1.000
    C204     C        0.06560    0.24670    0.99640    1.000
    O79      O        0.14360    0.22060    0.99950    1.000
    C205     C        0.01810    0.23300    0.99630    1.000
    C206     C        0.95790    0.17220    0.99530    1.000
    C207     C        0.07570    0.29220    0.99750    1.000
    H142     H        0.94930    0.14070    0.99380    1.000
    H143     H        0.10720    0.30080    0.00000    1.000
    H144     H        0.33600    0.94400    0.01300    1.000
    C208     C        0.37760    0.94160    0.07000    1.000
    O80      O        0.49110    0.92000    0.23600    1.000
    N20      N        0.41240    0.96470    0.10890    1.000
    C209     C        0.44410    0.99870    0.08200    1.000
    C210     C        0.43200    0.96440    0.21600    1.000
    H145     H        0.43440    0.01250    0.02060    1.000
    H146     H        0.44540    0.02260    0.13130    1.000
    H147     H        0.47460    0.98490    0.07390    1.000
    H148     H        0.45630    0.94140    0.22120    1.000
    H149     H        0.44400    0.99480    0.23170    1.000
    H150     H        0.40680    0.95660    0.26050    1.000
    Sr11     Sr       0.69060    0.50219    0.87691    1.000
    O81      O        0.75970    0.45390    0.82290    1.000
    O82      O        0.63220    0.55450    0.97360    1.000
    O83      O        0.79800    0.49010    0.18240    1.000
    O84      O        0.82930    0.42930    0.26110    1.000
    O85      O        0.81070    0.41120    0.74450    1.000
    C211     C        0.79500    0.42880    0.82040    1.000
    C212     C        0.63030    0.59140    0.03400    1.000
    C213     C        0.82060    0.41800    0.91560    1.000
    N21      N        0.58950    0.60690    0.99600    1.000
    C214     C        0.80870    0.43960    0.00170    1.000
    C215     C        0.85500    0.38370    0.91350    1.000
    C216     C        0.57300    0.57700    0.90500    1.000
    C217     C        0.81810    0.45020    0.18440    1.000
    H151     H        0.78570    0.46280    0.00190    1.000
    C218     C        0.83020    0.42730    0.08720    1.000
    C219     C        0.87590    0.37120    0.00120    1.000
    H152     H        0.86380    0.36950    0.85490    1.000
    H153     H        0.53900    0.57780    0.90050    1.000
    H154     H        0.58590    0.58970    0.84570    1.000
    H155     H        0.58280    0.54500    0.91230    1.000
    C220     C        0.86420    0.39250    0.08820    1.000
    C221     C        0.91160    0.33550    0.00040    1.000
    H156     H        0.87870    0.38380    0.14650    1.000
    C222     C        0.95810    0.35270    0.99620    1.000
    C223     C        0.89750    0.28930    0.99870    1.000
    C224     C        0.99600    0.31440    0.99540    1.000
    O86      O        0.96860    0.39360    0.99350    1.000
    C225     C        0.93440    0.25330    0.99640    1.000
    O87      O        0.85640    0.27940    0.99950    1.000
    C226     C        0.98190    0.26700    0.99630    1.000
    C227     C        0.04210    0.32780    0.99530    1.000
    C228     C        0.92430    0.20780    0.99750    1.000
    H157     H        0.05070    0.35930    0.99380    1.000
    H158     H        0.89280    0.19920    0.00000    1.000
    H159     H        0.66400    0.55600    0.01300    1.000
    C229     C        0.62240    0.55840    0.07000    1.000
    O88      O        0.50890    0.58000    0.23600    1.000
    N22      N        0.58760    0.53530    0.10890    1.000
    C230     C        0.55590    0.50130    0.08200    1.000
    C231     C        0.56800    0.53560    0.21600    1.000
    H160     H        0.56560    0.48750    0.02060    1.000
    H161     H        0.55460    0.47740    0.13130    1.000
    H162     H        0.52540    0.51510    0.07390    1.000
    H163     H        0.54370    0.55860    0.22120    1.000
    H164     H        0.55600    0.50520    0.23170    1.000
    H165     H        0.59320    0.54340    0.26050    1.000
    Sr12     Sr       0.19060    0.00219    0.37691    1.000
    O89      O        0.25970    0.95390    0.32290    1.000
    O90      O        0.13220    0.05450    0.47360    1.000
    O91      O        0.29800    0.99010    0.68240    1.000
    O92      O        0.32930    0.92930    0.76110    1.000
    O93      O        0.31070    0.91120    0.24450    1.000
    C232     C        0.29500    0.92880    0.32040    1.000
    C233     C        0.13030    0.09140    0.53400    1.000
    C234     C        0.32060    0.91800    0.41560    1.000
    N23      N        0.08950    0.10690    0.49600    1.000
    C235     C        0.30870    0.93960    0.50170    1.000
    C236     C        0.35500    0.88370    0.41350    1.000
    C237     C        0.07300    0.07700    0.40500    1.000
    C238     C        0.31810    0.95020    0.68440    1.000
    H166     H        0.28570    0.96280    0.50190    1.000
    C239     C        0.33020    0.92730    0.58720    1.000
    C240     C        0.37590    0.87120    0.50120    1.000
    H167     H        0.36380    0.86950    0.35490    1.000
    H168     H        0.03900    0.07780    0.40050    1.000
    H169     H        0.08590    0.08970    0.34570    1.000
    H170     H        0.08280    0.04500    0.41230    1.000
    C241     C        0.36420    0.89250    0.58820    1.000
    C242     C        0.41160    0.83550    0.50040    1.000
    H171     H        0.37870    0.88380    0.64650    1.000
    C243     C        0.45810    0.85270    0.49620    1.000
    C244     C        0.39750    0.78930    0.49870    1.000
    C245     C        0.49600    0.81440    0.49540    1.000
    O94      O        0.46860    0.89360    0.49350    1.000
    C246     C        0.43440    0.75330    0.49640    1.000
    O95      O        0.35640    0.77940    0.49950    1.000
    C247     C        0.48190    0.76700    0.49630    1.000
    C248     C        0.54210    0.82780    0.49530    1.000
    C249     C        0.42430    0.70780    0.49750    1.000
    H172     H        0.55070    0.85930    0.49380    1.000
    H173     H        0.39280    0.69920    0.50000    1.000
    H174     H        0.16400    0.05600    0.51300    1.000
    C250     C        0.12240    0.05840    0.57000    1.000
    O96      O        0.00890    0.08000    0.73600    1.000
    N24      N        0.08760    0.03530    0.60890    1.000
    C251     C        0.05590    0.00130    0.58200    1.000
    C252     C        0.06800    0.03560    0.71600    1.000
    H175     H        0.06560    0.98750    0.52060    1.000
    H176     H        0.05460    0.97740    0.63130    1.000
    H177     H        0.02540    0.01510    0.57390    1.000
    H178     H        0.04370    0.05860    0.72120    1.000
    H179     H        0.05600    0.00520    0.73170    1.000
    H180     H        0.09320    0.04340    0.76050    1.000
    Sr13     Sr       0.75219    0.55940    0.12691    1.000
    O97      O        0.70390    0.49030    0.07290    1.000
    O98      O        0.80450    0.61780    0.22360    1.000
    O99      O        0.74010    0.45200    0.43240    1.000
    O100     O        0.67930    0.42070    0.51110    1.000
    O101     O        0.66120    0.43930    0.99450    1.000
    C253     C        0.67880    0.45500    0.07040    1.000
    C254     C        0.84140    0.61970    0.28400    1.000
    C255     C        0.66800    0.42940    0.16560    1.000
    N25      N        0.85690    0.66050    0.24600    1.000
    C256     C        0.68960    0.44130    0.25170    1.000
    C257     C        0.63370    0.39500    0.16350    1.000
    C258     C        0.82700    0.67700    0.15500    1.000
    C259     C        0.70020    0.43190    0.43440    1.000
    H181     H        0.71280    0.46430    0.25190    1.000
    C260     C        0.67730    0.41980    0.33720    1.000
    C261     C        0.62120    0.37410    0.25120    1.000
    H182     H        0.61950    0.38620    0.10490    1.000
    H183     H        0.82780    0.71100    0.15050    1.000
    H184     H        0.83970    0.66410    0.09570    1.000
    H185     H        0.79500    0.66720    0.16230    1.000
    C262     C        0.64250    0.38580    0.33820    1.000
    C263     C        0.58550    0.33840    0.25040    1.000
    H186     H        0.63380    0.37130    0.39650    1.000
    C264     C        0.60270    0.29190    0.24620    1.000
    C265     C        0.53930    0.35250    0.24870    1.000
    C266     C        0.56440    0.25400    0.24540    1.000
    O102     O        0.64360    0.28140    0.24350    1.000
    C267     C        0.50330    0.31560    0.24640    1.000
    O103     O        0.52940    0.39360    0.24950    1.000
    C268     C        0.51700    0.26810    0.24630    1.000
    C269     C        0.57780    0.20790    0.24530    1.000
    C270     C        0.45780    0.32570    0.24750    1.000
    H187     H        0.60930    0.19930    0.24380    1.000
    H188     H        0.44920    0.35720    0.25000    1.000
    H189     H        0.80600    0.58600    0.26300    1.000
    C271     C        0.80840    0.62760    0.32000    1.000
    O104     O        0.83000    0.74110    0.48600    1.000
    N26      N        0.78530    0.66240    0.35890    1.000
    C272     C        0.75130    0.69410    0.33200    1.000
    C273     C        0.78560    0.68200    0.46600    1.000
    H190     H        0.73750    0.68440    0.27060    1.000
    H191     H        0.72740    0.69540    0.38130    1.000
    H192     H        0.76510    0.72460    0.32390    1.000
    H193     H        0.80860    0.70630    0.47120    1.000
    H194     H        0.75520    0.69400    0.48170    1.000
    H195     H        0.79340    0.65680    0.51050    1.000
    Sr14     Sr       0.25219    0.05940    0.62691    1.000
    O105     O        0.20390    0.99030    0.57290    1.000
    O106     O        0.30450    0.11780    0.72360    1.000
    O107     O        0.24010    0.95200    0.93240    1.000
    O108     O        0.17930    0.92070    0.01110    1.000
    O109     O        0.16120    0.93930    0.49450    1.000
    C274     C        0.17880    0.95500    0.57040    1.000
    C275     C        0.34140    0.11970    0.78400    1.000
    C276     C        0.16800    0.92940    0.66560    1.000
    N27      N        0.35690    0.16050    0.74600    1.000
    C277     C        0.18960    0.94130    0.75170    1.000
    C278     C        0.13370    0.89500    0.66350    1.000
    C279     C        0.32700    0.17700    0.65500    1.000
    C280     C        0.20020    0.93190    0.93440    1.000
    H196     H        0.21280    0.96430    0.75190    1.000
    C281     C        0.17730    0.91980    0.83720    1.000
    C282     C        0.12120    0.87410    0.75120    1.000
    H197     H        0.11950    0.88620    0.60490    1.000
    H198     H        0.32780    0.21100    0.65050    1.000
    H199     H        0.33970    0.16410    0.59570    1.000
    H200     H        0.29500    0.16720    0.66230    1.000
    C283     C        0.14250    0.88580    0.83820    1.000
    C284     C        0.08550    0.83840    0.75040    1.000
    H201     H        0.13380    0.87130    0.89650    1.000
    C285     C        0.10270    0.79190    0.74620    1.000
    C286     C        0.03930    0.85250    0.74870    1.000
    C287     C        0.06440    0.75400    0.74540    1.000
    O110     O        0.14360    0.78140    0.74350    1.000
    C288     C        0.00330    0.81560    0.74640    1.000
    O111     O        0.02940    0.89360    0.74950    1.000
    C289     C        0.01700    0.76810    0.74630    1.000
    C290     C        0.07780    0.70790    0.74530    1.000
    C291     C        0.95780    0.82570    0.74750    1.000
    H202     H        0.10930    0.69930    0.74380    1.000
    H203     H        0.94920    0.85720    0.75000    1.000
    H204     H        0.30600    0.08600    0.76300    1.000
    C292     C        0.30840    0.12760    0.82000    1.000
    O112     O        0.33000    0.24110    0.98600    1.000
    N28      N        0.28530    0.16240    0.85890    1.000
    C293     C        0.25130    0.19410    0.83200    1.000
    C294     C        0.28560    0.18200    0.96600    1.000
    H205     H        0.23750    0.18440    0.77060    1.000
    H206     H        0.22740    0.19540    0.88130    1.000
    H207     H        0.26510    0.22460    0.82390    1.000
    H208     H        0.30860    0.20630    0.97120    1.000
    H209     H        0.25520    0.19400    0.98170    1.000
    H210     H        0.29340    0.15680    0.01050    1.000
    Sr15     Sr       0.74781    0.44060    0.62691    1.000
    O113     O        0.79610    0.50970    0.57290    1.000
    O114     O        0.69550    0.38220    0.72360    1.000
    O115     O        0.75990    0.54800    0.93240    1.000
    O116     O        0.82070    0.57930    0.01110    1.000
    O117     O        0.83880    0.56070    0.49450    1.000
    C295     C        0.82120    0.54500    0.57040    1.000
    C296     C        0.65860    0.38030    0.78400    1.000
    C297     C        0.83200    0.57060    0.66560    1.000
    N29      N        0.64310    0.33950    0.74600    1.000
    C298     C        0.81040    0.55870    0.75170    1.000
    C299     C        0.86630    0.60500    0.66350    1.000
    C300     C        0.67300    0.32300    0.65500    1.000
    C301     C        0.79980    0.56810    0.93440    1.000
    H211     H        0.78720    0.53570    0.75190    1.000
    C302     C        0.82270    0.58020    0.83720    1.000
    C303     C        0.87880    0.62590    0.75120    1.000
    H212     H        0.88050    0.61380    0.60490    1.000
    H213     H        0.67220    0.28900    0.65050    1.000
    H214     H        0.66030    0.33590    0.59570    1.000
    H215     H        0.70500    0.33280    0.66230    1.000
    C304     C        0.85750    0.61420    0.83820    1.000
    C305     C        0.91450    0.66160    0.75040    1.000
    H216     H        0.86620    0.62870    0.89650    1.000
    C306     C        0.89730    0.70810    0.74620    1.000
    C307     C        0.96070    0.64750    0.74870    1.000
    C308     C        0.93560    0.74600    0.74540    1.000
    O118     O        0.85640    0.71860    0.74350    1.000
    C309     C        0.99670    0.68440    0.74640    1.000
    O119     O        0.97060    0.60640    0.74950    1.000
    C310     C        0.98300    0.73190    0.74630    1.000
    C311     C        0.92220    0.79210    0.74530    1.000
    C312     C        0.04220    0.67430    0.74750    1.000
    H217     H        0.89070    0.80070    0.74380    1.000
    H218     H        0.05080    0.64280    0.75000    1.000
    H219     H        0.69400    0.41400    0.76300    1.000
    C313     C        0.69160    0.37240    0.82000    1.000
    O120     O        0.67000    0.25890    0.98600    1.000
    N30      N        0.71470    0.33760    0.85890    1.000
    C314     C        0.74870    0.30590    0.83200    1.000
    C315     C        0.71440    0.31800    0.96600    1.000
    H220     H        0.76250    0.31560    0.77060    1.000
    H221     H        0.77260    0.30460    0.88130    1.000
    H222     H        0.73490    0.27540    0.82390    1.000
    H223     H        0.69140    0.29370    0.97120    1.000
    H224     H        0.74480    0.30600    0.98170    1.000
    H225     H        0.70660    0.34320    0.01050    1.000
    Sr16     Sr       0.24781    0.94060    0.12691    1.000
    O121     O        0.29610    0.00970    0.07290    1.000
    O122     O        0.19550    0.88220    0.22360    1.000
    O123     O        0.25990    0.04800    0.43240    1.000
    O124     O        0.32070    0.07930    0.51110    1.000
    O125     O        0.33880    0.06070    0.99450    1.000
    C316     C        0.32120    0.04500    0.07040    1.000
    C317     C        0.15860    0.88030    0.28400    1.000
    C318     C        0.33200    0.07060    0.16560    1.000
    N31      N        0.14310    0.83950    0.24600    1.000
    C319     C        0.31040    0.05870    0.25170    1.000
    C320     C        0.36630    0.10500    0.16350    1.000
    C321     C        0.17300    0.82300    0.15500    1.000
    C322     C        0.29980    0.06810    0.43440    1.000
    H226     H        0.28720    0.03570    0.25190    1.000
    C323     C        0.32270    0.08020    0.33720    1.000
    C324     C        0.37880    0.12590    0.25120    1.000
    H227     H        0.38050    0.11380    0.10490    1.000
    H228     H        0.17220    0.78900    0.15050    1.000
    H229     H        0.16030    0.83590    0.09570    1.000
    H230     H        0.20500    0.83280    0.16230    1.000
    C325     C        0.35750    0.11420    0.33820    1.000
    C326     C        0.41450    0.16160    0.25040    1.000
    H231     H        0.36620    0.12870    0.39650    1.000
    C327     C        0.39730    0.20810    0.24620    1.000
    C328     C        0.46070    0.14750    0.24870    1.000
    C329     C        0.43560    0.24600    0.24540    1.000
    O126     O        0.35640    0.21860    0.24350    1.000
    C330     C        0.49670    0.18440    0.24640    1.000
    O127     O        0.47060    0.10640    0.24950    1.000
    C331     C        0.48300    0.23190    0.24630    1.000
    C332     C        0.42220    0.29210    0.24530    1.000
    C333     C        0.54220    0.17430    0.24750    1.000
    H232     H        0.39070    0.30070    0.24380    1.000
    H233     H        0.55080    0.14280    0.25000    1.000
    H234     H        0.19400    0.91400    0.26300    1.000
    C334     C        0.19160    0.87240    0.32000    1.000
    O128     O        0.17000    0.75890    0.48600    1.000
    N32      N        0.21470    0.83760    0.35890    1.000
    C335     C        0.24870    0.80590    0.33200    1.000
    C336     C        0.21440    0.81800    0.46600    1.000
    H235     H        0.26250    0.81560    0.27060    1.000
    H236     H        0.27260    0.80460    0.38130    1.000
    H237     H        0.23490    0.77540    0.32390    1.000
    H238     H        0.19140    0.79370    0.47120    1.000
    H239     H        0.24480    0.80600    0.48170    1.000
    H240     H        0.20660    0.84320    0.51050    1.000
