# CIF file generated by openbabel 3.1.0, see https://openbabel.org
data_I
_chemical_name_common 'image0'
_cell_length_a 10.0154
_cell_length_b 10.7448
_cell_length_c 10.9746
_cell_angle_alpha 80.363
_cell_angle_beta 72.521
_cell_angle_gamma 74.593
_space_group_name_H-M_alt 'P 1'
_space_group_name_Hall 'P 1'
loop_
    _symmetry_equiv_pos_as_xyz
    x,y,z
loop_
    _atom_site_label
    _atom_site_type_symbol
    _atom_site_fract_x
    _atom_site_fract_y
    _atom_site_fract_z
    _atom_site_occupancy
    Pr1      Pr       0.82313    0.30429    0.46464    1.000
    Zn1      Zn       0.70708    0.13197    0.88491    1.000
    N1       N        0.86840    0.19750    0.92470    1.000
    N2       N        0.52370    0.29340    0.93260    1.000
    C1       C        0.89030    0.14750    0.03970    1.000
    C2       C        0.78080    0.07300    0.12390    1.000
    C3       C        0.00750    0.16150    0.07460    1.000
    C4       C        0.10400    0.22640    0.98620    1.000
    H1       H        0.18800    0.22600    0.00900    1.000
    C5       C        0.07950    0.27800    0.86910    1.000
    H2       H        0.14400    0.31900    0.80400    1.000
    C6       C        0.96020    0.26220    0.84210    1.000
    H3       H        0.93300    0.29900    0.77200    1.000
    C7       C        0.44210    0.32320    0.04950    1.000
    H4       H        0.47700    0.27400    0.11700    1.000
    C8       C        0.31920    0.42220    0.06800    1.000
    H5       H        0.26100    0.44000    0.15100    1.000
    C9       C        0.27870    0.49080    0.96150    1.000
    H6       H        0.20100    0.55500    0.96500    1.000
    C10      C        0.36200    0.46210    0.83920    1.000
    C11      C        0.48620    0.36310    0.82960    1.000
    C12      C        0.31320    0.53730    0.72540    1.000
    C13      C        0.59250    0.33020    0.70340    1.000
    C14      C        0.93970    0.52240    0.56080    1.000
    C15      C        0.03280    0.11390    0.20470    1.000
    O1       O        0.68890    0.05820    0.07308    1.000
    O2       O        0.78910    0.03070    0.23409    1.000
    O3       O        0.97600    0.19280    0.28737    1.000
    O4       O        0.11360    0.00593    0.22165    1.000
    O5       O        0.70443    0.24044    0.70557    1.000
    O6       O        0.57240    0.39471    0.60300    1.000
    O7       O        0.33360    0.65009    0.69220    1.000
    O8       O        0.24420    0.48975    0.67470    1.000
    O9       O        0.83680    0.46750    0.59454    1.000
    O10      O        0.95450    0.60880    0.61478    1.000
    Pr2      Pr       0.17687    0.69571    0.53536    1.000
    Zn2      Zn       0.29292    0.86803    0.11509    1.000
    N3       N        0.13160    0.80250    0.07530    1.000
    N4       N        0.47630    0.70660    0.06740    1.000
    C16      C        0.10970    0.85250    0.96030    1.000
    C17      C        0.21920    0.92700    0.87610    1.000
    C18      C        0.99250    0.83850    0.92540    1.000
    C19      C        0.89600    0.77360    0.01380    1.000
    H7       H        0.81200    0.77400    0.99100    1.000
    C20      C        0.92050    0.72200    0.13090    1.000
    H8       H        0.85600    0.68100    0.19600    1.000
    C21      C        0.03980    0.73780    0.15790    1.000
    H9       H        0.06700    0.70100    0.22800    1.000
    C22      C        0.55790    0.67680    0.95050    1.000
    H10      H        0.52300    0.72600    0.88300    1.000
    C23      C        0.68080    0.57780    0.93200    1.000
    H11      H        0.73900    0.56000    0.84900    1.000
    C24      C        0.72130    0.50920    0.03850    1.000
    H12      H        0.79900    0.44500    0.03500    1.000
    C25      C        0.63800    0.53790    0.16080    1.000
    C26      C        0.51380    0.63690    0.17040    1.000
    C27      C        0.68680    0.46270    0.27460    1.000
    C28      C        0.40750    0.66980    0.29660    1.000
    C29      C        0.06030    0.47760    0.43920    1.000
    C30      C        0.96720    0.88610    0.79530    1.000
    O11      O        0.31110    0.94180    0.92692    1.000
    O12      O        0.21090    0.96930    0.76591    1.000
    O13      O        0.02400    0.80720    0.71263    1.000
    O14      O        0.88640    0.99407    0.77835    1.000
    O15      O        0.29557    0.75956    0.29443    1.000
    O16      O        0.42760    0.60529    0.39700    1.000
    O17      O        0.66640    0.34991    0.30780    1.000
    O18      O        0.75580    0.51025    0.32530    1.000
    O19      O        0.16320    0.53250    0.40546    1.000
    O20      O        0.04550    0.39120    0.38522    1.000
