# CIF file generated by openbabel 3.1.0, see https://openbabel.org
data_I
_chemical_name_common 'image0'
_cell_length_a 13.4985
_cell_length_b 13.4985
_cell_length_c 18.12
_cell_angle_alpha 90
_cell_angle_beta 90
_cell_angle_gamma 120
_space_group_name_H-M_alt 'P 1'
_space_group_name_Hall 'P 1'
loop_
    _symmetry_equiv_pos_as_xyz
    x,y,z
loop_
    _atom_site_label
    _atom_site_type_symbol
    _atom_site_fract_x
    _atom_site_fract_y
    _atom_site_fract_z
    _atom_site_occupancy
    H1       H        0.25000    0.25900    0.00200    1.000
    H2       H        0.25400    0.38000    0.03800    1.000
    V1       V        0.29214    0.43297    0.95846    1.000
    P1       P        0.16065    0.18634    0.87084    1.000
    H3       H        0.22900    0.19300    0.84710    1.000
    P2       P        0.50385    0.63115    0.05342    1.000
    O1       O        0.13470    0.10830    0.93808    1.000
    O2       O        0.06640    0.14080    0.81289    1.000
    O3       O        0.38030    0.54680    0.03508    1.000
    O4       O        0.18900    0.30690    0.89239    1.000
    O5       O        0.32680    0.55170    0.88225    1.000
    O6       O        0.57110    0.57340    0.07552    1.000
    O7       O        0.56500    0.71710    0.99164    1.000
    O8       O        0.25600    0.31090    0.04097    1.000
    O9       O        0.50080    0.69740    0.12150    1.000
    H4       H        0.44280    0.65700    0.14550    1.000
    H5       H        0.74100    0.99100    0.00200    1.000
    H6       H        0.62000    0.87400    0.03800    1.000
    V2       V        0.56703    0.85917    0.95846    1.000
    P3       P        0.81366    0.97431    0.87084    1.000
    H7       H        0.80700    0.03600    0.84710    1.000
    P4       P        0.36885    0.87270    0.05342    1.000
    O10      O        0.89170    0.02640    0.93808    1.000
    O11      O        0.85920    0.92560    0.81289    1.000
    O12      O        0.45320    0.83350    0.03508    1.000
    O13      O        0.69310    0.88210    0.89239    1.000
    O14      O        0.44830    0.77510    0.88225    1.000
    O15      O        0.42660    0.99770    0.07552    1.000
    O16      O        0.28290    0.84790    0.99164    1.000
    O17      O        0.68910    0.94510    0.04097    1.000
    O18      O        0.30260    0.80340    0.12150    1.000
    H8       H        0.34300    0.78580    0.14550    1.000
    H9       H        0.00900    0.75000    0.00200    1.000
    H10      H        0.12600    0.74600    0.03800    1.000
    V3       V        0.14083    0.70786    0.95846    1.000
    P5       P        0.02569    0.83935    0.87084    1.000
    H11      H        0.96400    0.77100    0.84710    1.000
    P6       P        0.12730    0.49615    0.05342    1.000
    O19      O        0.97360    0.86530    0.93808    1.000
    O20      O        0.07440    0.93360    0.81289    1.000
    O21      O        0.16650    0.61970    0.03508    1.000
    O22      O        0.11790    0.81100    0.89239    1.000
    O23      O        0.22490    0.67320    0.88225    1.000
    O24      O        0.00230    0.42890    0.07552    1.000
    O25      O        0.15210    0.43500    0.99164    1.000
    O26      O        0.05490    0.74400    0.04097    1.000
    O27      O        0.19660    0.49920    0.12150    1.000
    H12      H        0.21420    0.55720    0.14550    1.000
    H13      H        0.25900    0.25000    0.49800    1.000
    H14      H        0.38000    0.25400    0.46200    1.000
    V4       V        0.43297    0.29214    0.54154    1.000
    P7       P        0.18634    0.16065    0.62916    1.000
    H15      H        0.19300    0.22900    0.65290    1.000
    P8       P        0.63115    0.50385    0.44658    1.000
    O28      O        0.10830    0.13470    0.56192    1.000
    O29      O        0.14080    0.06640    0.68711    1.000
    O30      O        0.54680    0.38030    0.46492    1.000
    O31      O        0.30690    0.18900    0.60761    1.000
    O32      O        0.55170    0.32680    0.61775    1.000
    O33      O        0.57340    0.57110    0.42448    1.000
    O34      O        0.71710    0.56500    0.50836    1.000
    O35      O        0.31090    0.25600    0.45903    1.000
    O36      O        0.69740    0.50080    0.37850    1.000
    H16      H        0.65700    0.44280    0.35450    1.000
    H17      H        0.99100    0.74100    0.49800    1.000
    H18      H        0.87400    0.62000    0.46200    1.000
    V5       V        0.85917    0.56703    0.54154    1.000
    P9       P        0.97431    0.81366    0.62916    1.000
    H19      H        0.03600    0.80700    0.65290    1.000
    P10      P        0.87270    0.36885    0.44658    1.000
    O37      O        0.02640    0.89170    0.56192    1.000
    O38      O        0.92560    0.85920    0.68711    1.000
    O39      O        0.83350    0.45320    0.46492    1.000
    O40      O        0.88210    0.69310    0.60761    1.000
    O41      O        0.77510    0.44830    0.61775    1.000
    O42      O        0.99770    0.42660    0.42448    1.000
    O43      O        0.84790    0.28290    0.50836    1.000
    O44      O        0.94510    0.68910    0.45903    1.000
    O45      O        0.80340    0.30260    0.37850    1.000
    H20      H        0.78580    0.34300    0.35450    1.000
    H21      H        0.75000    0.00900    0.49800    1.000
    H22      H        0.74600    0.12600    0.46200    1.000
    V6       V        0.70786    0.14083    0.54154    1.000
    P11      P        0.83935    0.02569    0.62916    1.000
    H23      H        0.77100    0.96400    0.65290    1.000
    P12      P        0.49615    0.12730    0.44658    1.000
    O46      O        0.86530    0.97360    0.56192    1.000
    O47      O        0.93360    0.07440    0.68711    1.000
    O48      O        0.61970    0.16650    0.46492    1.000
    O49      O        0.81100    0.11790    0.60761    1.000
    O50      O        0.67320    0.22490    0.61775    1.000
    O51      O        0.42890    0.00230    0.42448    1.000
    O52      O        0.43500    0.15210    0.50836    1.000
    O53      O        0.74400    0.05490    0.45903    1.000
    O54      O        0.49920    0.19660    0.37850    1.000
    H24      H        0.55720    0.21420    0.35450    1.000
    H25      H        0.75000    0.74100    0.99800    1.000
    H26      H        0.74600    0.62000    0.96200    1.000
    V7       V        0.70786    0.56703    0.04154    1.000
    P13      P        0.83935    0.81366    0.12916    1.000
    H27      H        0.77100    0.80700    0.15290    1.000
    P14      P        0.49615    0.36885    0.94658    1.000
    O55      O        0.86530    0.89170    0.06192    1.000
    O56      O        0.93360    0.85920    0.18711    1.000
    O57      O        0.61970    0.45320    0.96492    1.000
    O58      O        0.81100    0.69310    0.10761    1.000
    O59      O        0.67320    0.44830    0.11775    1.000
    O60      O        0.42890    0.42660    0.92448    1.000
    O61      O        0.43500    0.28290    0.00836    1.000
    O62      O        0.74400    0.68910    0.95903    1.000
    O63      O        0.49920    0.30260    0.87850    1.000
    H28      H        0.55720    0.34300    0.85450    1.000
    H29      H        0.25900    0.00900    0.99800    1.000
    H30      H        0.38000    0.12600    0.96200    1.000
    V8       V        0.43297    0.14083    0.04154    1.000
    P15      P        0.18634    0.02569    0.12916    1.000
    H31      H        0.19300    0.96400    0.15290    1.000
    P16      P        0.63115    0.12730    0.94658    1.000
    O64      O        0.10830    0.97360    0.06192    1.000
    O65      O        0.14080    0.07440    0.18711    1.000
    O66      O        0.54680    0.16650    0.96492    1.000
    O67      O        0.30690    0.11790    0.10761    1.000
    O68      O        0.55170    0.22490    0.11775    1.000
    O69      O        0.57340    0.00230    0.92448    1.000
    O70      O        0.71710    0.15210    0.00836    1.000
    O71      O        0.31090    0.05490    0.95903    1.000
    O72      O        0.69740    0.19660    0.87850    1.000
    H32      H        0.65700    0.21420    0.85450    1.000
    H33      H        0.99100    0.25000    0.99800    1.000
    H34      H        0.87400    0.25400    0.96200    1.000
    V9       V        0.85917    0.29214    0.04154    1.000
    P17      P        0.97431    0.16065    0.12916    1.000
    H35      H        0.03600    0.22900    0.15290    1.000
    P18      P        0.87270    0.50385    0.94658    1.000
    O73      O        0.02640    0.13470    0.06192    1.000
    O74      O        0.92560    0.06640    0.18711    1.000
    O75      O        0.83350    0.38030    0.96492    1.000
    O76      O        0.88210    0.18900    0.10761    1.000
    O77      O        0.77510    0.32680    0.11775    1.000
    O78      O        0.99770    0.57110    0.92448    1.000
    O79      O        0.84790    0.56500    0.00836    1.000
    O80      O        0.94510    0.25600    0.95903    1.000
    O81      O        0.80340    0.50080    0.87850    1.000
    H36      H        0.78580    0.44280    0.85450    1.000
    H37      H        0.74100    0.75000    0.50200    1.000
    H38      H        0.62000    0.74600    0.53800    1.000
    V10      V        0.56703    0.70786    0.45846    1.000
    P19      P        0.81366    0.83935    0.37084    1.000
    H39      H        0.80700    0.77100    0.34710    1.000
    P20      P        0.36885    0.49615    0.55342    1.000
    O82      O        0.89170    0.86530    0.43808    1.000
    O83      O        0.85920    0.93360    0.31289    1.000
    O84      O        0.45320    0.61970    0.53508    1.000
    O85      O        0.69310    0.81100    0.39239    1.000
    O86      O        0.44830    0.67320    0.38225    1.000
    O87      O        0.42660    0.42890    0.57552    1.000
    O88      O        0.28290    0.43500    0.49164    1.000
    O89      O        0.68910    0.74400    0.54097    1.000
    O90      O        0.30260    0.49920    0.62150    1.000
    H40      H        0.34300    0.55720    0.64550    1.000
    H41      H        0.00900    0.25900    0.50200    1.000
    H42      H        0.12600    0.38000    0.53800    1.000
    V11      V        0.14083    0.43297    0.45846    1.000
    P21      P        0.02569    0.18634    0.37084    1.000
    H43      H        0.96400    0.19300    0.34710    1.000
    P22      P        0.12730    0.63115    0.55342    1.000
    O91      O        0.97360    0.10830    0.43808    1.000
    O92      O        0.07440    0.14080    0.31289    1.000
    O93      O        0.16650    0.54680    0.53508    1.000
    O94      O        0.11790    0.30690    0.39239    1.000
    O95      O        0.22490    0.55170    0.38225    1.000
    O96      O        0.00230    0.57340    0.57552    1.000
    O97      O        0.15210    0.71710    0.49164    1.000
    O98      O        0.05490    0.31090    0.54097    1.000
    O99      O        0.19660    0.69740    0.62150    1.000
    H44      H        0.21420    0.65700    0.64550    1.000
    H45      H        0.25000    0.99100    0.50200    1.000
    H46      H        0.25400    0.87400    0.53800    1.000
    V12      V        0.29214    0.85917    0.45846    1.000
    P23      P        0.16065    0.97431    0.37084    1.000
    H47      H        0.22900    0.03600    0.34710    1.000
    P24      P        0.50385    0.87270    0.55342    1.000
    O100     O        0.13470    0.02640    0.43808    1.000
    O101     O        0.06640    0.92560    0.31289    1.000
    O102     O        0.38030    0.83350    0.53508    1.000
    O103     O        0.18900    0.88210    0.39239    1.000
    O104     O        0.32680    0.77510    0.38225    1.000
    O105     O        0.57110    0.99770    0.57552    1.000
    O106     O        0.56500    0.84790    0.49164    1.000
    O107     O        0.25600    0.94510    0.54097    1.000
    O108     O        0.50080    0.80340    0.62150    1.000
    H48      H        0.44280    0.78580    0.64550    1.000
    V13      V        0.00000    0.00000    0.00000    1.000
    V14      V        0.00000    0.00000    0.50000    1.000
    V15      V        0.00000    0.00000    0.75000    1.000
    V16      V        0.00000    0.00000    0.25000    1.000
    P25      P        0.33333    0.66667    0.86158    1.000
    H49      H        0.33333    0.66667    0.80750    1.000
    P26      P        0.66667    0.33333    0.63842    1.000
    H50      H        0.66667    0.33333    0.69250    1.000
    P27      P        0.66667    0.33333    0.13842    1.000
    H51      H        0.66667    0.33333    0.19250    1.000
    P28      P        0.33333    0.66667    0.36158    1.000
    H52      H        0.33333    0.66667    0.30750    1.000
