# CIF file generated by openbabel 3.1.0, see https://openbabel.org
data_I
_chemical_name_common 'NORJEL_clean'
_cell_length_a 14.605
_cell_length_b 14.931
_cell_length_c 16.946
_cell_angle_alpha 112.16
_cell_angle_beta 103.198
_cell_angle_gamma 100.39
_space_group_name_H-M_alt 'P 1'
_space_group_name_Hall 'P 1'
loop_
    _symmetry_equiv_pos_as_xyz
    x,y,z
loop_
    _atom_site_label
    _atom_site_type_symbol
    _atom_site_fract_x
    _atom_site_fract_y
    _atom_site_fract_z
    _atom_site_occupancy
    Cd1      Cd       0.36024    0.44122    0.59463    1.000
    Cd2      Cd       0.63976    0.55878    0.40537    1.000
    Cd3      Cd       0.07268    0.12623    0.13401    1.000
    Cd4      Cd       0.92732    0.87377    0.86599    1.000
    H1       H        0.11960    0.46620    0.11740    1.000
    H2       H        0.87440    0.12480    0.34590    1.000
    H3       H        0.15120    0.34250    0.15800    1.000
    H4       H        0.73330    0.01130    0.65340    1.000
    H5       H        0.69120    0.31480    0.89220    1.000
    H6       H        0.12820    0.06450    0.43000    1.000
    H7       H        0.91010    0.43590    0.94230    1.000
    H8       H        0.52030    0.86520    0.18060    1.000
    H9       H        0.91420    0.76800    0.34220    1.000
    H10      H        0.27600    0.22360    0.05050    1.000
    H11      H        0.90830    0.14600    0.97760    1.000
    H12      H        0.51060    0.00630    0.42860    1.000
    H13      H        0.87020    0.26450    0.93190    1.000
    H14      H        0.58340    0.72100    0.14420    1.000
    H15      H        0.72400    0.77640    0.94950    1.000
    H16      H        0.41810    0.96230    0.21400    1.000
    H17      H        0.47160    0.14000    0.39940    1.000
    H18      H        0.49070    0.52610    0.85080    1.000
    H19      H        0.35770    0.17340    0.72460    1.000
    H20      H        0.47970    0.13480    0.81940    1.000
    H21      H        0.23180    0.61760    0.50520    1.000
    H22      H        0.52840    0.86000    0.60060    1.000
    H23      H        0.69980    0.95540    0.41790    1.000
    H24      H        0.12290    0.93870    0.80910    1.000
    H25      H        0.20990    0.46320    0.88310    1.000
    H26      H        0.99020    0.05740    0.57990    1.000
    H27      H        0.24540    0.20370    0.45270    1.000
    H28      H        0.80020    0.63200    0.32860    1.000
    H29      H        0.81530    0.10540    0.45250    1.000
    H30      H        0.84880    0.65750    0.84200    1.000
    H31      H        0.65360    0.55280    0.84860    1.000
    H32      H        0.18310    0.76460    0.42780    1.000
    H33      H        0.49630    0.83490    0.35260    1.000
    H34      H        0.71980    0.31250    0.15480    1.000
    H35      H        0.72030    0.05560    0.89690    1.000
    H36      H        0.27120    0.82210    0.41080    1.000
    H37      H        0.30880    0.68520    0.10780    1.000
    H38      H        0.89800    0.49580    0.21280    1.000
    H39      H        0.50370    0.16510    0.64740    1.000
    H40      H        0.50930    0.47390    0.14920    1.000
    H41      H        0.26670    0.98870    0.34660    1.000
    H42      H        0.32360    0.43360    0.28600    1.000
    H43      H        0.44120    0.29260    0.44370    1.000
    H44      H        0.09170    0.85400    0.02240    1.000
    H45      H        0.76820    0.38240    0.49480    1.000
    H46      H        0.67640    0.56640    0.71400    1.000
    H47      H        0.88040    0.53380    0.88260    1.000
    H48      H        0.64230    0.82660    0.27540    1.000
    H49      H        0.16030    0.31140    0.88950    1.000
    H50      H        0.05100    0.60100    0.29850    1.000
    H51      H        0.10200    0.50420    0.78720    1.000
    H52      H        0.87710    0.06130    0.19090    1.000
    H53      H        0.81690    0.23540    0.57220    1.000
    H54      H        0.12980    0.73550    0.06810    1.000
    H55      H        0.30020    0.04460    0.58210    1.000
    H56      H        0.55880    0.70740    0.55630    1.000
    H57      H        0.94900    0.39900    0.70150    1.000
    H58      H        0.24370    0.82690    0.95760    1.000
    H59      H        0.34810    0.53320    0.06440    1.000
    H60      H        0.34640    0.44720    0.15140    1.000
    H61      H        0.28020    0.68750    0.84520    1.000
    H62      H        0.08990    0.56410    0.05770    1.000
    H63      H        0.48940    0.99370    0.57140    1.000
    H64      H        0.41660    0.27900    0.85580    1.000
    H65      H        0.79010    0.53680    0.11690    1.000
    H66      H        0.65190    0.46680    0.93560    1.000
    H67      H        0.27970    0.94440    0.10310    1.000
    H68      H        0.37810    0.33320    0.93460    1.000
    H69      H        0.47180    0.31900    0.68530    1.000
    H70      H        0.75460    0.79630    0.54730    1.000
    H71      H        0.12560    0.87520    0.65410    1.000
    H72      H        0.62190    0.66680    0.06540    1.000
    H73      H        0.58190    0.03770    0.78600    1.000
    H74      H        0.73640    0.25230    0.76630    1.000
    H75      H        0.96650    0.85060    0.16060    1.000
    H76      H        0.72880    0.17790    0.58920    1.000
    H77      H        0.52820    0.68100    0.31470    1.000
    H78      H        0.87180    0.93550    0.57000    1.000
    H79      H        0.18470    0.89460    0.54750    1.000
    H80      H        0.19980    0.36800    0.67140    1.000
    H81      H        0.26360    0.74770    0.23370    1.000
    H82      H        0.00980    0.94260    0.42010    1.000
    H83      H        0.83970    0.68860    0.11050    1.000
    H84      H        0.75630    0.17310    0.04240    1.000
    H85      H        0.08580    0.23200    0.65780    1.000
    H86      H        0.03350    0.14940    0.83940    1.000
    C1       C        0.89810    0.10072    0.75215    1.000
    C2       C        0.30490    0.49259    0.30231    1.000
    C3       C        0.71942    0.47215    0.62045    1.000
    C4       C        0.82700    0.06490    0.33070    1.000
    C5       C        0.98320    0.95410    0.46670    1.000
    C6       C        0.20740    0.94660    0.60570    1.000
    C7       C        0.99010    0.38000    0.73890    1.000
    C8       C        0.68750    0.88660    0.28760    1.000
    C9       C        0.47160    0.63570    0.93680    1.000
    C10      C        0.09150    0.13150    0.54170    1.000
    C11      C        0.14190    0.12540    0.48027    1.000
    C12      C        0.04530    0.71479    0.25980    1.000
    C13      C        0.88260    0.67160    0.14840    1.000
    C14      C        0.16790    0.87416    0.30664    1.000
    C15      C        0.09360    0.32670    0.11190    1.000
    C16      C        0.04860    0.78862    0.99373    1.000
    C17      C        0.51030    0.81090    0.39590    1.000
    C18      C        0.83210    0.12584    0.69336    1.000
    C19      C        0.72090    0.31300    0.78221    1.000
    C20      C        0.85970    0.21637    0.68665    1.000
    C21      C        0.46450    0.85539    0.13518    1.000
    C22      C        0.27730    0.03670    0.62670    1.000
    C23      C        0.28100    0.10320    0.78339    1.000
    C24      C        0.14730    0.41880    0.84800    1.000
    C25      C        0.30640    0.64960    0.14230    1.000
    C26      C        0.24900    0.61690    0.40278    1.000
    C27      C        0.84610    0.94385    0.02236    1.000
    C28      C        0.47090    0.17390    0.45790    1.000
    C29      C        0.28058    0.52785    0.37955    1.000
    C30      C        0.52910    0.82610    0.54210    1.000
    C31      C        0.86630    0.00528    0.76297    1.000
    C32      C        0.16990    0.99900    0.82492    1.000
    C33      C        0.20104    0.07304    0.91182    1.000
    C34      C        0.83010    0.00100    0.17508    1.000
    C35      C        0.13370    0.99472    0.23703    1.000
    C36      C        0.01680    0.04590    0.53330    1.000
    C37      C        0.59860    0.72423    0.09231    1.000
    C38      C        0.48970    0.18910    0.60410    1.000
    C39      C        0.88370    0.77580    0.38580    1.000
    C40      C        0.30236    0.54364    0.24668    1.000
    C41      C        0.55600    0.22098    0.95419    1.000
    C42      C        0.21230    0.76460    0.38176    1.000
    C43      C        0.91810    0.55680    0.20980    1.000
    C44      C        0.99020    0.16662    0.80199    1.000
    C45      C        0.08190    0.44320    0.79020    1.000
    C46      C        0.00990    0.62000    0.26110    1.000
    C47      C        0.61160    0.37324    0.13181    1.000
    C48      C        0.45260    0.26600    0.48540    1.000
    C49      C        0.11740    0.32840    0.85160    1.000
    C50      C        0.29850    0.83280    0.00210    1.000
    C51      C        0.97050    0.45446    0.98614    1.000
    C52      C        0.71900    0.89680    0.21661    1.000
    C53      C        0.40140    0.27577    0.90769    1.000
    C54      C        0.52960    0.71795    0.37330    1.000
    C55      C        0.79310    0.98830    0.24071    1.000
    C56      C        0.95470    0.28521    0.74020    1.000
    C57      C        0.75100    0.38310    0.59722    1.000
    C58      C        0.70796    0.52423    0.55994    1.000
    C59      C        0.00980    0.83338    0.19801    1.000
    C60      C        0.75560    0.33109    0.64992    1.000
    C61      C        0.15390    0.05615    0.97764    1.000
    C62      C        0.27509    0.16450    0.93572    1.000
    C63      C        0.51170    0.86770    0.48280    1.000
    C64      C        0.36370    0.55260    0.77150    1.000
    C65      C        0.78770    0.23540    0.61824    1.000
    C66      C        0.90640    0.67330    0.88810    1.000
    C67      C        0.72270    0.96330    0.37330    1.000
    C68      C        0.48830    0.13230    0.51720    1.000
    C69      C        0.81380    0.69410    0.37740    1.000
    C70      C        0.49660    0.28668    0.97605    1.000
    C71      C        0.29204    0.47577    0.44006    1.000
    C72      C        0.85810    0.87460    0.51973    1.000
    C73      C        0.53550    0.14461    0.86482    1.000
    C74      C        0.72491    0.83550    0.06428    1.000
    C75      C        0.27411    0.63427    0.27229    1.000
    C76      C        0.67980    0.09640    0.91140    1.000
    C77      C        0.52840    0.36430    0.06320    1.000
    C78      C        0.79896    0.92696    0.08818    1.000
    C79      C        0.99140    0.37973    0.01798    1.000
    C80      C        0.69360    0.35040    0.85770    1.000
    C81      C        0.32940    0.50710    0.16816    1.000
    C82      C        0.11630    0.22420    0.61420    1.000
    C83      C        0.50040    0.02910    0.48420    1.000
    C84      C        0.07150    0.71770    0.02187    1.000
    C85      C        0.27910    0.68700    0.21779    1.000
    C86      C        0.50340    0.71332    0.02395    1.000
    C87      C        0.33410    0.69260    0.88997    1.000
    C88      C        0.92460    0.59860    0.91270    1.000
    C89      C        0.33090    0.55840    0.11640    1.000
    C90      C        0.18620    0.30590    0.62260    1.000
    C91      C        0.07540    0.40140    0.08730    1.000
    C92      C        0.97790    0.73960    0.20130    1.000
    C93      C        0.59640    0.08580    0.84490    1.000
    C94      C        0.40360    0.91420    0.15510    1.000
    C95      C        0.78790    0.79017    0.50574    1.000
    C96      C        0.44400    0.77902    0.04581    1.000
    C97      C        0.64200    0.23195    0.02107    1.000
    C98      C        0.24440    0.66891    0.35008    1.000
    C99      C        0.00860    0.62027    0.98202    1.000
    C100     C        0.54740    0.73400    0.51460    1.000
    C101     C        0.10190    0.89928    0.24785    1.000
    C102     C        0.92850    0.28230    0.97813    1.000
    C103     C        0.66590    0.30740    0.11003    1.000
    C104     C        0.02210    0.26040    0.79870    1.000
    C105     C        0.20690    0.01170    0.75929    1.000
    C106     C        0.17300    0.93510    0.66930    1.000
    C107     C        0.95140    0.21138    0.00627    1.000
    C108     C        0.90850    0.86850    0.45830    1.000
    C109     C        0.69764    0.45636    0.75332    1.000
    C110     C        0.70150    0.16720    0.99790    1.000
    C111     C        0.69510    0.50741    0.69769    1.000
    C112     C        0.31860    0.17937    0.87509    1.000
    C113     C        0.32020    0.90360    0.08860    1.000
    C114     C        0.85270    0.58120    0.15200    1.000
    C115     C        0.79260    0.05340    0.39430    1.000
    C116     C        0.47040    0.28205    0.62670    1.000
    C117     C        0.31250    0.11340    0.71240    1.000
    C118     C        0.67060    0.49290    0.83184    1.000
    C119     C        0.02950    0.54554    0.01386    1.000
    C120     C        0.63630    0.44740    0.22850    1.000
    C121     C        0.14030    0.78363    0.31335    1.000
    C122     C        0.21210    0.20983    0.49426    1.000
    C123     C        0.49960    0.97090    0.51580    1.000
    C124     C        0.72589    0.36573    0.72771    1.000
    C125     C        0.66910    0.44160    0.88360    1.000
    C126     C        0.35800    0.76805    0.97893    1.000
    C127     C        0.38840    0.62676    0.86819    1.000
    C128     C        0.68140    0.82063    0.12491    1.000
    N1       N        0.23510    0.30046    0.56451    1.000
    N2       N        0.03279    0.23290    0.07286    1.000
    N3       N        0.55016    0.68003    0.43281    1.000
    N4       N        0.76490    0.69954    0.43549    1.000
    N5       N        0.44984    0.31997    0.56719    1.000
    N6       N        0.96721    0.76710    0.92714    1.000
    O1       O        0.32577    0.40111    0.42048    1.000
    O2       O        0.81485    0.87327    0.94276    1.000
    O3       O        0.08885    0.97579    0.95361    1.000
    O4       O        0.41760    0.49423    0.75226    1.000
    O5       O        0.29580    0.55064    0.71102    1.000
    O6       O        0.25943    0.93931    0.35749    1.000
    O7       O        0.72973    0.48938    0.48819    1.000
    O8       O        0.47834    0.43369    0.08149    1.000
    O9       O        0.74057    0.06069    0.64251    1.000
    O10      O        0.22322    0.65275    0.47846    1.000
    O11      O        0.58240    0.50577    0.24774    1.000
    O12      O        0.78162    0.94437    0.71449    1.000
    O13      O        0.67423    0.59889    0.57952    1.000
    O14      O        0.18515    0.12673    0.05724    1.000
    O15      O        0.77678    0.34725    0.52154    1.000
    O16      O        0.70420    0.44936    0.28898    1.000
    O17      O        0.30524    0.24065    0.02008    1.000
    O18      O        0.69476    0.75935    0.97992    1.000
    O19      O        0.27027    0.51062    0.51181    1.000
    O20      O        0.52166    0.56631    0.91851    1.000
    O21      O        0.07303    0.00651    0.17916    1.000
    O22      O        0.21838    0.05563    0.28551    1.000
    O23      O        0.91115    0.02421    0.04639    1.000
    O24      O        0.92697    0.99349    0.82084    1.000
