# CIF file generated by openbabel 3.1.0, see https://openbabel.org
data_I
_chemical_name_common 'image0'
_cell_length_a 34.5079
_cell_length_b 19.159
_cell_length_c 23.9838
_cell_angle_alpha 90
_cell_angle_beta 128.019
_cell_angle_gamma 90
_space_group_name_H-M_alt 'P 1'
_space_group_name_Hall 'P 1'
loop_
    _symmetry_equiv_pos_as_xyz
    x,y,z
loop_
    _atom_site_label
    _atom_site_type_symbol
    _atom_site_fract_x
    _atom_site_fract_y
    _atom_site_fract_z
    _atom_site_occupancy
    C1       C        0.94350    0.45150    0.07130    1.000
    C2       C        0.99080    0.43070    0.14020    1.000
    C3       C        0.99890    0.36100    0.15910    1.000
    H1       H        0.97450    0.32810    0.13070    1.000
    C4       C        0.04300    0.34110    0.21970    1.000
    H2       H        0.04920    0.29460    0.23360    1.000
    C5       C        0.07810    0.39090    0.25980    1.000
    H3       H        0.10870    0.37650    0.30000    1.000
    C6       C        0.02750    0.47850    0.18540    1.000
    C7       C        0.02010    0.55600    0.17510    1.000
    C8       C        0.97450    0.64860    0.16630    1.000
    H4       H        0.94690    0.66530    0.16030    1.000
    C9       C        0.00670    0.69580    0.17400    1.000
    H5       H        0.00190    0.74330    0.17520    1.000
    C10      C        0.04660    0.67190    0.17980    1.000
    H6       H        0.06870    0.70330    0.18390    1.000
    C11      C        0.05350    0.60050    0.17960    1.000
    C12      C        0.09210    0.57460    0.17440    1.000
    C13      C        0.84600    0.68400    0.81260    1.000
    C14      C        0.84940    0.73920    0.77220    1.000
    C15      C        0.88970    0.78190    0.80610    1.000
    H7       H        0.91640    0.77320    0.85300    1.000
    C16      C        0.89050    0.83670    0.77150    1.000
    H8       H        0.91720    0.86700    0.79450    1.000
    C17      C        0.85200    0.84670    0.70320    1.000
    H9       H        0.85270    0.88530    0.68030    1.000
    C18      C        0.81140    0.75090    0.70150    1.000
    C19      C        0.76850    0.70260    0.65610    1.000
    C20      C        0.74230    0.59340    0.61460    1.000
    H10      H        0.74950    0.54630    0.61620    1.000
    C21      C        0.69370    0.61350    0.56540    1.000
    H11      H        0.66930    0.58130    0.53490    1.000
    C22      C        0.68320    0.68220    0.56370    1.000
    H12      H        0.65110    0.69830    0.53160    1.000
    C23      C        0.72110    0.72780    0.61040    1.000
    C24      C        0.70920    0.80290    0.61480    1.000
    C25      C        0.77720    0.36360    0.66120    1.000
    C26      C        0.78920    0.33160    0.61660    1.000
    C27      C        0.83040    0.29010    0.65150    1.000
    H13      H        0.84640    0.27810    0.69860    1.000
    C28      C        0.84790    0.26670    0.61680    1.000
    H14      H        0.87590    0.23900    0.63980    1.000
    C29      C        0.82320    0.28490    0.54840    1.000
    H15      H        0.83600    0.27030    0.52560    1.000
    C30      C        0.76420    0.34560    0.54430    1.000
    C31      C        0.71590    0.38130    0.50070    1.000
    C32      C        0.64400    0.39900    0.48500    1.000
    H16      H        0.62520    0.39320    0.50040    1.000
    C33      C        0.62490    0.43490    0.42470    1.000
    H17      H        0.59330    0.45330    0.39920    1.000
    C34      C        0.65150    0.44420    0.40110    1.000
    H18      H        0.63790    0.46780    0.35890    1.000
    C35      C        0.69860    0.41860    0.44000    1.000
    C36      C        0.72910    0.43700    0.41740    1.000
    C37      C        0.68440    0.48870    0.68050    1.000
    C38      C        0.62980    0.49090    0.62510    1.000
    C39      C        0.60210    0.43180    0.59860    1.000
    H19      H        0.61740    0.38850    0.61420    1.000
    C40      C        0.55170    0.43520    0.54930    1.000
    H20      H        0.53380    0.39400    0.53120    1.000
    C41      C        0.52760    0.49720    0.52620    1.000
    C42      C        0.55610    0.55650    0.54840    1.000
    H21      H        0.54110    0.59950    0.52950    1.000
    C43      C        0.60710    0.55300    0.59890    1.000
    H22      H        0.62570    0.59380    0.61450    1.000
    N1       N        0.07106    0.45880    0.24490    1.000
    N2       N        0.97997    0.57890    0.16680    1.000
    N3       N        0.81240    0.80460    0.66570    1.000
    N4       N        0.77940    0.63530    0.65950    1.000
    N5       N        0.68910    0.37180    0.52300    1.000
    N6       N        0.78200    0.32220    0.51120    1.000
    O1       O        0.90538    0.42060    0.05380    1.000
    O2       O        0.94508    0.49680    0.03451    1.000
    O3       O        0.08081    0.51990    0.13780    1.000
    O4       O        0.13147    0.60730    0.20390    1.000
    O5       O        0.88367    0.64840    0.85540    1.000
    O6       O        0.80546    0.67770    0.80170    1.000
    O7       O        0.71628    0.81930    0.67040    1.000
    O8       O        0.69344    0.84120    0.56250    1.000
    O9       O        0.77213    0.32440    0.69860    1.000
    O10      O        0.77833    0.42870    0.66766    1.000
    O11      O        0.76616    0.47480    0.45940    1.000
    O12      O        0.71504    0.41600    0.35800    1.000
    O13      O        0.76472    0.47150    0.84216    1.000
    O14      O        0.85901    0.43745    0.90551    1.000
    O15      O        0.81595    0.53382    0.79909    1.000
    O16      O        0.83585    0.56850    0.92858    1.000
    O17      O        0.70494    0.54640    0.70840    1.000
    O18      O        0.70654    0.43160    0.69710    1.000
    Tb1      Tb       0.89633    0.54573    0.91612    1.000
    Tb2      Tb       0.79376    0.41744    0.78387    1.000
    Tb3      Tb       0.82531    0.45937    0.96577    1.000
    Tb4      Tb       0.76244    0.59492    0.81633    1.000
    C44      C        0.44350    0.95150    0.07130    1.000
    C45      C        0.49080    0.93070    0.14020    1.000
    C46      C        0.49890    0.86100    0.15910    1.000
    H23      H        0.47450    0.82810    0.13070    1.000
    C47      C        0.54300    0.84110    0.21970    1.000
    H24      H        0.54920    0.79460    0.23360    1.000
    C48      C        0.57810    0.89090    0.25980    1.000
    H25      H        0.60870    0.87650    0.30000    1.000
    C49      C        0.52750    0.97850    0.18540    1.000
    C50      C        0.52010    0.05600    0.17510    1.000
    C51      C        0.47450    0.14860    0.16630    1.000
    H26      H        0.44690    0.16530    0.16030    1.000
    C52      C        0.50670    0.19580    0.17400    1.000
    H27      H        0.50190    0.24330    0.17520    1.000
    C53      C        0.54660    0.17190    0.17980    1.000
    H28      H        0.56870    0.20330    0.18390    1.000
    C54      C        0.55350    0.10050    0.17960    1.000
    C55      C        0.59210    0.07460    0.17440    1.000
    C56      C        0.34600    0.18400    0.81260    1.000
    C57      C        0.34940    0.23920    0.77220    1.000
    C58      C        0.38970    0.28190    0.80610    1.000
    H29      H        0.41640    0.27320    0.85300    1.000
    C59      C        0.39050    0.33670    0.77150    1.000
    H30      H        0.41720    0.36700    0.79450    1.000
    C60      C        0.35200    0.34670    0.70320    1.000
    H31      H        0.35270    0.38530    0.68030    1.000
    C61      C        0.31140    0.25090    0.70150    1.000
    C62      C        0.26850    0.20260    0.65610    1.000
    C63      C        0.24230    0.09340    0.61460    1.000
    H32      H        0.24950    0.04630    0.61620    1.000
    C64      C        0.19370    0.11350    0.56540    1.000
    H33      H        0.16930    0.08130    0.53490    1.000
    C65      C        0.18320    0.18220    0.56370    1.000
    H34      H        0.15110    0.19830    0.53160    1.000
    C66      C        0.22110    0.22780    0.61040    1.000
    C67      C        0.20920    0.30290    0.61480    1.000
    C68      C        0.27720    0.86360    0.66120    1.000
    C69      C        0.28920    0.83160    0.61660    1.000
    C70      C        0.33040    0.79010    0.65150    1.000
    H35      H        0.34640    0.77810    0.69860    1.000
    C71      C        0.34790    0.76670    0.61680    1.000
    H36      H        0.37590    0.73900    0.63980    1.000
    C72      C        0.32320    0.78490    0.54840    1.000
    H37      H        0.33600    0.77030    0.52560    1.000
    C73      C        0.26420    0.84560    0.54430    1.000
    C74      C        0.21590    0.88130    0.50070    1.000
    C75      C        0.14400    0.89900    0.48500    1.000
    H38      H        0.12520    0.89320    0.50040    1.000
    C76      C        0.12490    0.93490    0.42470    1.000
    H39      H        0.09330    0.95330    0.39920    1.000
    C77      C        0.15150    0.94420    0.40110    1.000
    H40      H        0.13790    0.96780    0.35890    1.000
    C78      C        0.19860    0.91860    0.44000    1.000
    C79      C        0.22910    0.93700    0.41740    1.000
    C80      C        0.18440    0.98870    0.68050    1.000
    C81      C        0.12980    0.99090    0.62510    1.000
    C82      C        0.10210    0.93180    0.59860    1.000
    H41      H        0.11740    0.88850    0.61420    1.000
    C83      C        0.05170    0.93520    0.54930    1.000
    H42      H        0.03380    0.89400    0.53120    1.000
    C84      C        0.02760    0.99720    0.52620    1.000
    C85      C        0.05610    0.05650    0.54840    1.000
    H43      H        0.04110    0.09950    0.52950    1.000
    C86      C        0.10710    0.05300    0.59890    1.000
    H44      H        0.12570    0.09380    0.61450    1.000
    N7       N        0.57106    0.95880    0.24490    1.000
    N8       N        0.47997    0.07890    0.16680    1.000
    N9       N        0.31240    0.30460    0.66570    1.000
    N10      N        0.27940    0.13530    0.65950    1.000
    N11      N        0.18910    0.87180    0.52300    1.000
    N12      N        0.28200    0.82220    0.51120    1.000
    O19      O        0.40538    0.92060    0.05380    1.000
    O20      O        0.44508    0.99680    0.03451    1.000
    O21      O        0.58081    0.01990    0.13780    1.000
    O22      O        0.63147    0.10730    0.20390    1.000
    O23      O        0.38367    0.14840    0.85540    1.000
    O24      O        0.30546    0.17770    0.80170    1.000
    O25      O        0.21628    0.31930    0.67040    1.000
    O26      O        0.19344    0.34120    0.56250    1.000
    O27      O        0.27213    0.82440    0.69860    1.000
    O28      O        0.27833    0.92870    0.66766    1.000
    O29      O        0.26616    0.97480    0.45940    1.000
    O30      O        0.21504    0.91600    0.35800    1.000
    O31      O        0.26472    0.97150    0.84216    1.000
    O32      O        0.35901    0.93745    0.90551    1.000
    O33      O        0.31595    0.03382    0.79909    1.000
    O34      O        0.33585    0.06850    0.92858    1.000
    O35      O        0.20494    0.04640    0.70840    1.000
    O36      O        0.20654    0.93160    0.69710    1.000
    Tb5      Tb       0.39633    0.04573    0.91612    1.000
    Tb6      Tb       0.29376    0.91744    0.78387    1.000
    Tb7      Tb       0.32531    0.95937    0.96577    1.000
    Tb8      Tb       0.26244    0.09492    0.81633    1.000
    C87      C        0.05650    0.45150    0.42870    1.000
    C88      C        0.00920    0.43070    0.35980    1.000
    C89      C        0.00110    0.36100    0.34090    1.000
    H45      H        0.02550    0.32810    0.36930    1.000
    C90      C        0.95700    0.34110    0.28030    1.000
    H46      H        0.95080    0.29460    0.26640    1.000
    C91      C        0.92190    0.39090    0.24020    1.000
    H47      H        0.89130    0.37650    0.20000    1.000
    C92      C        0.97250    0.47850    0.31460    1.000
    C93      C        0.97990    0.55600    0.32490    1.000
    C94      C        0.02550    0.64860    0.33370    1.000
    H48      H        0.05310    0.66530    0.33970    1.000
    C95      C        0.99330    0.69580    0.32600    1.000
    H49      H        0.99810    0.74330    0.32480    1.000
    C96      C        0.95340    0.67190    0.32020    1.000
    H50      H        0.93130    0.70330    0.31610    1.000
    C97      C        0.94650    0.60050    0.32040    1.000
    C98      C        0.90790    0.57460    0.32560    1.000
    C99      C        0.15400    0.68400    0.68740    1.000
    C100     C        0.15060    0.73920    0.72780    1.000
    C101     C        0.11030    0.78190    0.69390    1.000
    H51      H        0.08360    0.77320    0.64700    1.000
    C102     C        0.10950    0.83670    0.72850    1.000
    H52      H        0.08280    0.86700    0.70550    1.000
    C103     C        0.14800    0.84670    0.79680    1.000
    H53      H        0.14730    0.88530    0.81970    1.000
    C104     C        0.18860    0.75090    0.79850    1.000
    C105     C        0.23150    0.70260    0.84390    1.000
    C106     C        0.25770    0.59340    0.88540    1.000
    H54      H        0.25050    0.54630    0.88380    1.000
    C107     C        0.30630    0.61350    0.93460    1.000
    H55      H        0.33070    0.58130    0.96510    1.000
    C108     C        0.31680    0.68220    0.93630    1.000
    H56      H        0.34890    0.69830    0.96840    1.000
    C109     C        0.27890    0.72780    0.88960    1.000
    C110     C        0.29080    0.80290    0.88520    1.000
    C111     C        0.22280    0.36360    0.83880    1.000
    C112     C        0.21080    0.33160    0.88340    1.000
    C113     C        0.16960    0.29010    0.84850    1.000
    H57      H        0.15360    0.27810    0.80140    1.000
    C114     C        0.15210    0.26670    0.88320    1.000
    H58      H        0.12410    0.23900    0.86020    1.000
    C115     C        0.17680    0.28490    0.95160    1.000
    H59      H        0.16400    0.27030    0.97440    1.000
    C116     C        0.23580    0.34560    0.95570    1.000
    C117     C        0.28410    0.38130    0.99930    1.000
    C118     C        0.35600    0.39900    0.01500    1.000
    H60      H        0.37480    0.39320    0.99960    1.000
    C119     C        0.37510    0.43490    0.07530    1.000
    H61      H        0.40670    0.45330    0.10080    1.000
    C120     C        0.34850    0.44420    0.09890    1.000
    H62      H        0.36210    0.46780    0.14110    1.000
    C121     C        0.30140    0.41860    0.06000    1.000
    C122     C        0.27090    0.43700    0.08260    1.000
    C123     C        0.31560    0.48870    0.81950    1.000
    C124     C        0.37020    0.49090    0.87490    1.000
    C125     C        0.39790    0.43180    0.90140    1.000
    H63      H        0.38260    0.38850    0.88580    1.000
    C126     C        0.44830    0.43520    0.95070    1.000
    H64      H        0.46620    0.39400    0.96880    1.000
    C127     C        0.47240    0.49720    0.97380    1.000
    C128     C        0.44390    0.55650    0.95160    1.000
    H65      H        0.45890    0.59950    0.97050    1.000
    C129     C        0.39290    0.55300    0.90110    1.000
    H66      H        0.37430    0.59380    0.88550    1.000
    N13      N        0.92894    0.45880    0.25510    1.000
    N14      N        0.02003    0.57890    0.33320    1.000
    N15      N        0.18760    0.80460    0.83430    1.000
    N16      N        0.22060    0.63530    0.84050    1.000
    N17      N        0.31090    0.37180    0.97700    1.000
    N18      N        0.21800    0.32220    0.98880    1.000
    O37      O        0.09462    0.42060    0.44620    1.000
    O38      O        0.05492    0.49680    0.46549    1.000
    O39      O        0.91919    0.51990    0.36220    1.000
    O40      O        0.86853    0.60730    0.29610    1.000
    O41      O        0.11633    0.64840    0.64460    1.000
    O42      O        0.19454    0.67770    0.69830    1.000
    O43      O        0.28372    0.81930    0.82960    1.000
    O44      O        0.30656    0.84120    0.93750    1.000
    O45      O        0.22787    0.32440    0.80140    1.000
    O46      O        0.22167    0.42870    0.83234    1.000
    O47      O        0.23384    0.47480    0.04060    1.000
    O48      O        0.28496    0.41600    0.14200    1.000
    O49      O        0.23528    0.47150    0.65784    1.000
    O50      O        0.14099    0.43745    0.59449    1.000
    O51      O        0.18405    0.53382    0.70091    1.000
    O52      O        0.16415    0.56850    0.57142    1.000
    O53      O        0.29506    0.54640    0.79160    1.000
    O54      O        0.29346    0.43160    0.80290    1.000
    Tb9      Tb       0.10367    0.54573    0.58388    1.000
    Tb10     Tb       0.20624    0.41744    0.71613    1.000
    Tb11     Tb       0.17469    0.45937    0.53423    1.000
    Tb12     Tb       0.23756    0.59492    0.68367    1.000
    C130     C        0.55650    0.95150    0.42870    1.000
    C131     C        0.50920    0.93070    0.35980    1.000
    C132     C        0.50110    0.86100    0.34090    1.000
    H67      H        0.52550    0.82810    0.36930    1.000
    C133     C        0.45700    0.84110    0.28030    1.000
    H68      H        0.45080    0.79460    0.26640    1.000
    C134     C        0.42190    0.89090    0.24020    1.000
    H69      H        0.39130    0.87650    0.20000    1.000
    C135     C        0.47250    0.97850    0.31460    1.000
    C136     C        0.47990    0.05600    0.32490    1.000
    C137     C        0.52550    0.14860    0.33370    1.000
    H70      H        0.55310    0.16530    0.33970    1.000
    C138     C        0.49330    0.19580    0.32600    1.000
    H71      H        0.49810    0.24330    0.32480    1.000
    C139     C        0.45340    0.17190    0.32020    1.000
    H72      H        0.43130    0.20330    0.31610    1.000
    C140     C        0.44650    0.10050    0.32040    1.000
    C141     C        0.40790    0.07460    0.32560    1.000
    C142     C        0.65400    0.18400    0.68740    1.000
    C143     C        0.65060    0.23920    0.72780    1.000
    C144     C        0.61030    0.28190    0.69390    1.000
    H73      H        0.58360    0.27320    0.64700    1.000
    C145     C        0.60950    0.33670    0.72850    1.000
    H74      H        0.58280    0.36700    0.70550    1.000
    C146     C        0.64800    0.34670    0.79680    1.000
    H75      H        0.64730    0.38530    0.81970    1.000
    C147     C        0.68860    0.25090    0.79850    1.000
    C148     C        0.73150    0.20260    0.84390    1.000
    C149     C        0.75770    0.09340    0.88540    1.000
    H76      H        0.75050    0.04630    0.88380    1.000
    C150     C        0.80630    0.11350    0.93460    1.000
    H77      H        0.83070    0.08130    0.96510    1.000
    C151     C        0.81680    0.18220    0.93630    1.000
    H78      H        0.84890    0.19830    0.96840    1.000
    C152     C        0.77890    0.22780    0.88960    1.000
    C153     C        0.79080    0.30290    0.88520    1.000
    C154     C        0.72280    0.86360    0.83880    1.000
    C155     C        0.71080    0.83160    0.88340    1.000
    C156     C        0.66960    0.79010    0.84850    1.000
    H79      H        0.65360    0.77810    0.80140    1.000
    C157     C        0.65210    0.76670    0.88320    1.000
    H80      H        0.62410    0.73900    0.86020    1.000
    C158     C        0.67680    0.78490    0.95160    1.000
    H81      H        0.66400    0.77030    0.97440    1.000
    C159     C        0.73580    0.84560    0.95570    1.000
    C160     C        0.78410    0.88130    0.99930    1.000
    C161     C        0.85600    0.89900    0.01500    1.000
    H82      H        0.87480    0.89320    0.99960    1.000
    C162     C        0.87510    0.93490    0.07530    1.000
    H83      H        0.90670    0.95330    0.10080    1.000
    C163     C        0.84850    0.94420    0.09890    1.000
    H84      H        0.86210    0.96780    0.14110    1.000
    C164     C        0.80140    0.91860    0.06000    1.000
    C165     C        0.77090    0.93700    0.08260    1.000
    C166     C        0.81560    0.98870    0.81950    1.000
    C167     C        0.87020    0.99090    0.87490    1.000
    C168     C        0.89790    0.93180    0.90140    1.000
    H85      H        0.88260    0.88850    0.88580    1.000
    C169     C        0.94830    0.93520    0.95070    1.000
    H86      H        0.96620    0.89400    0.96880    1.000
    C170     C        0.97240    0.99720    0.97380    1.000
    C171     C        0.94390    0.05650    0.95160    1.000
    H87      H        0.95890    0.09950    0.97050    1.000
    C172     C        0.89290    0.05300    0.90110    1.000
    H88      H        0.87430    0.09380    0.88550    1.000
    N19      N        0.42894    0.95880    0.25510    1.000
    N20      N        0.52003    0.07890    0.33320    1.000
    N21      N        0.68760    0.30460    0.83430    1.000
    N22      N        0.72060    0.13530    0.84050    1.000
    N23      N        0.81090    0.87180    0.97700    1.000
    N24      N        0.71800    0.82220    0.98880    1.000
    O55      O        0.59462    0.92060    0.44620    1.000
    O56      O        0.55492    0.99680    0.46549    1.000
    O57      O        0.41919    0.01990    0.36220    1.000
    O58      O        0.36853    0.10730    0.29610    1.000
    O59      O        0.61633    0.14840    0.64460    1.000
    O60      O        0.69454    0.17770    0.69830    1.000
    O61      O        0.78372    0.31930    0.82960    1.000
    O62      O        0.80656    0.34120    0.93750    1.000
    O63      O        0.72787    0.82440    0.80140    1.000
    O64      O        0.72167    0.92870    0.83234    1.000
    O65      O        0.73384    0.97480    0.04060    1.000
    O66      O        0.78496    0.91600    0.14200    1.000
    O67      O        0.73528    0.97150    0.65784    1.000
    O68      O        0.64099    0.93745    0.59449    1.000
    O69      O        0.68405    0.03382    0.70091    1.000
    O70      O        0.66415    0.06850    0.57142    1.000
    O71      O        0.79506    0.04640    0.79160    1.000
    O72      O        0.79346    0.93160    0.80290    1.000
    Tb13     Tb       0.60367    0.04573    0.58388    1.000
    Tb14     Tb       0.70624    0.91744    0.71613    1.000
    Tb15     Tb       0.67469    0.95937    0.53424    1.000
    Tb16     Tb       0.73756    0.09492    0.68367    1.000
    C173     C        0.05650    0.54850    0.92870    1.000
    C174     C        0.00920    0.56930    0.85980    1.000
    C175     C        0.00110    0.63900    0.84090    1.000
    H89      H        0.02550    0.67190    0.86930    1.000
    C176     C        0.95700    0.65890    0.78030    1.000
    H90      H        0.95080    0.70540    0.76640    1.000
    C177     C        0.92190    0.60910    0.74020    1.000
    H91      H        0.89130    0.62350    0.70000    1.000
    C178     C        0.97250    0.52150    0.81460    1.000
    C179     C        0.97990    0.44400    0.82490    1.000
    C180     C        0.02550    0.35140    0.83370    1.000
    H92      H        0.05310    0.33470    0.83970    1.000
    C181     C        0.99330    0.30420    0.82600    1.000
    H93      H        0.99810    0.25670    0.82480    1.000
    C182     C        0.95340    0.32810    0.82020    1.000
    H94      H        0.93130    0.29670    0.81610    1.000
    C183     C        0.94650    0.39950    0.82040    1.000
    C184     C        0.90790    0.42540    0.82560    1.000
    C185     C        0.15400    0.31600    0.18740    1.000
    C186     C        0.15060    0.26080    0.22780    1.000
    C187     C        0.11030    0.21810    0.19390    1.000
    H95      H        0.08360    0.22680    0.14700    1.000
    C188     C        0.10950    0.16330    0.22850    1.000
    H96      H        0.08280    0.13300    0.20550    1.000
    C189     C        0.14800    0.15330    0.29680    1.000
    H97      H        0.14730    0.11470    0.31970    1.000
    C190     C        0.18860    0.24910    0.29850    1.000
    C191     C        0.23150    0.29740    0.34390    1.000
    C192     C        0.25770    0.40660    0.38540    1.000
    H98      H        0.25050    0.45370    0.38380    1.000
    C193     C        0.30630    0.38650    0.43460    1.000
    H99      H        0.33070    0.41870    0.46510    1.000
    C194     C        0.31680    0.31780    0.43630    1.000
    H100     H        0.34890    0.30170    0.46840    1.000
    C195     C        0.27890    0.27220    0.38960    1.000
    C196     C        0.29080    0.19710    0.38520    1.000
    C197     C        0.22280    0.63640    0.33880    1.000
    C198     C        0.21080    0.66840    0.38340    1.000
    C199     C        0.16960    0.70990    0.34850    1.000
    H101     H        0.15360    0.72190    0.30140    1.000
    C200     C        0.15210    0.73330    0.38320    1.000
    H102     H        0.12410    0.76100    0.36020    1.000
    C201     C        0.17680    0.71510    0.45160    1.000
    H103     H        0.16400    0.72970    0.47440    1.000
    C202     C        0.23580    0.65440    0.45570    1.000
    C203     C        0.28410    0.61870    0.49930    1.000
    C204     C        0.35600    0.60100    0.51500    1.000
    H104     H        0.37480    0.60680    0.49960    1.000
    C205     C        0.37510    0.56510    0.57530    1.000
    H105     H        0.40670    0.54670    0.60080    1.000
    C206     C        0.34850    0.55580    0.59890    1.000
    H106     H        0.36210    0.53220    0.64110    1.000
    C207     C        0.30140    0.58140    0.56000    1.000
    C208     C        0.27090    0.56300    0.58260    1.000
    C209     C        0.31560    0.51130    0.31950    1.000
    C210     C        0.37020    0.50910    0.37490    1.000
    C211     C        0.39790    0.56820    0.40140    1.000
    H107     H        0.38260    0.61150    0.38580    1.000
    C212     C        0.44830    0.56480    0.45070    1.000
    H108     H        0.46620    0.60600    0.46880    1.000
    C213     C        0.47240    0.50280    0.47380    1.000
    C214     C        0.44390    0.44350    0.45160    1.000
    H109     H        0.45890    0.40050    0.47050    1.000
    C215     C        0.39290    0.44700    0.40110    1.000
    H110     H        0.37430    0.40620    0.38550    1.000
    N25      N        0.92894    0.54120    0.75510    1.000
    N26      N        0.02003    0.42110    0.83320    1.000
    N27      N        0.18760    0.19540    0.33430    1.000
    N28      N        0.22060    0.36470    0.34050    1.000
    N29      N        0.31090    0.62820    0.47700    1.000
    N30      N        0.21800    0.67780    0.48880    1.000
    O73      O        0.09462    0.57940    0.94620    1.000
    O74      O        0.05492    0.50320    0.96549    1.000
    O75      O        0.91919    0.48010    0.86220    1.000
    O76      O        0.86853    0.39270    0.79610    1.000
    O77      O        0.11633    0.35160    0.14460    1.000
    O78      O        0.19454    0.32230    0.19830    1.000
    O79      O        0.28372    0.18070    0.32960    1.000
    O80      O        0.30656    0.15880    0.43750    1.000
    O81      O        0.22787    0.67560    0.30140    1.000
    O82      O        0.22167    0.57130    0.33234    1.000
    O83      O        0.23384    0.52520    0.54060    1.000
    O84      O        0.28496    0.58400    0.64200    1.000
    O85      O        0.23528    0.52850    0.15784    1.000
    O86      O        0.14099    0.56255    0.09449    1.000
    O87      O        0.18405    0.46618    0.20091    1.000
    O88      O        0.16415    0.43150    0.07142    1.000
    O89      O        0.29506    0.45360    0.29160    1.000
    O90      O        0.29346    0.56840    0.30290    1.000
    Tb17     Tb       0.10367    0.45427    0.08388    1.000
    Tb18     Tb       0.20624    0.58256    0.21613    1.000
    Tb19     Tb       0.17469    0.54063    0.03423    1.000
    Tb20     Tb       0.23756    0.40508    0.18367    1.000
    C216     C        0.55650    0.04850    0.92870    1.000
    C217     C        0.50920    0.06930    0.85980    1.000
    C218     C        0.50110    0.13900    0.84090    1.000
    H111     H        0.52550    0.17190    0.86930    1.000
    C219     C        0.45700    0.15890    0.78030    1.000
    H112     H        0.45080    0.20540    0.76640    1.000
    C220     C        0.42190    0.10910    0.74020    1.000
    H113     H        0.39130    0.12350    0.70000    1.000
    C221     C        0.47250    0.02150    0.81460    1.000
    C222     C        0.47990    0.94400    0.82490    1.000
    C223     C        0.52550    0.85140    0.83370    1.000
    H114     H        0.55310    0.83470    0.83970    1.000
    C224     C        0.49330    0.80420    0.82600    1.000
    H115     H        0.49810    0.75670    0.82480    1.000
    C225     C        0.45340    0.82810    0.82020    1.000
    H116     H        0.43130    0.79670    0.81610    1.000
    C226     C        0.44650    0.89950    0.82040    1.000
    C227     C        0.40790    0.92540    0.82560    1.000
    C228     C        0.65400    0.81600    0.18740    1.000
    C229     C        0.65060    0.76080    0.22780    1.000
    C230     C        0.61030    0.71810    0.19390    1.000
    H117     H        0.58360    0.72680    0.14700    1.000
    C231     C        0.60950    0.66330    0.22850    1.000
    H118     H        0.58280    0.63300    0.20550    1.000
    C232     C        0.64800    0.65330    0.29680    1.000
    H119     H        0.64730    0.61470    0.31970    1.000
    C233     C        0.68860    0.74910    0.29850    1.000
    C234     C        0.73150    0.79740    0.34390    1.000
    C235     C        0.75770    0.90660    0.38540    1.000
    H120     H        0.75050    0.95370    0.38380    1.000
    C236     C        0.80630    0.88650    0.43460    1.000
    H121     H        0.83070    0.91870    0.46510    1.000
    C237     C        0.81680    0.81780    0.43630    1.000
    H122     H        0.84890    0.80170    0.46840    1.000
    C238     C        0.77890    0.77220    0.38960    1.000
    C239     C        0.79080    0.69710    0.38520    1.000
    C240     C        0.72280    0.13640    0.33880    1.000
    C241     C        0.71080    0.16840    0.38340    1.000
    C242     C        0.66960    0.20990    0.34850    1.000
    H123     H        0.65360    0.22190    0.30140    1.000
    C243     C        0.65210    0.23330    0.38320    1.000
    H124     H        0.62410    0.26100    0.36020    1.000
    C244     C        0.67680    0.21510    0.45160    1.000
    H125     H        0.66400    0.22970    0.47440    1.000
    C245     C        0.73580    0.15440    0.45570    1.000
    C246     C        0.78410    0.11870    0.49930    1.000
    C247     C        0.85600    0.10100    0.51500    1.000
    H126     H        0.87480    0.10680    0.49960    1.000
    C248     C        0.87510    0.06510    0.57530    1.000
    H127     H        0.90670    0.04670    0.60080    1.000
    C249     C        0.84850    0.05580    0.59890    1.000
    H128     H        0.86210    0.03220    0.64110    1.000
    C250     C        0.80140    0.08140    0.56000    1.000
    C251     C        0.77090    0.06300    0.58260    1.000
    C252     C        0.81560    0.01130    0.31950    1.000
    C253     C        0.87020    0.00910    0.37490    1.000
    C254     C        0.89790    0.06820    0.40140    1.000
    H129     H        0.88260    0.11150    0.38580    1.000
    C255     C        0.94830    0.06480    0.45070    1.000
    H130     H        0.96620    0.10600    0.46880    1.000
    C256     C        0.97240    0.00280    0.47380    1.000
    C257     C        0.94390    0.94350    0.45160    1.000
    H131     H        0.95890    0.90050    0.47050    1.000
    C258     C        0.89290    0.94700    0.40110    1.000
    H132     H        0.87430    0.90620    0.38550    1.000
    N31      N        0.42894    0.04120    0.75510    1.000
    N32      N        0.52003    0.92110    0.83320    1.000
    N33      N        0.68760    0.69540    0.33430    1.000
    N34      N        0.72060    0.86470    0.34050    1.000
    N35      N        0.81090    0.12820    0.47700    1.000
    N36      N        0.71800    0.17780    0.48880    1.000
    O91      O        0.59462    0.07940    0.94620    1.000
    O92      O        0.55492    0.00320    0.96549    1.000
    O93      O        0.41919    0.98010    0.86220    1.000
    O94      O        0.36853    0.89270    0.79610    1.000
    O95      O        0.61633    0.85160    0.14460    1.000
    O96      O        0.69454    0.82230    0.19830    1.000
    O97      O        0.78372    0.68070    0.32960    1.000
    O98      O        0.80656    0.65880    0.43750    1.000
    O99      O        0.72787    0.17560    0.30140    1.000
    O100     O        0.72167    0.07130    0.33234    1.000
    O101     O        0.73384    0.02520    0.54060    1.000
    O102     O        0.78496    0.08400    0.64200    1.000
    O103     O        0.73528    0.02850    0.15784    1.000
    O104     O        0.64099    0.06255    0.09449    1.000
    O105     O        0.68405    0.96618    0.20091    1.000
    O106     O        0.66415    0.93150    0.07142    1.000
    O107     O        0.79506    0.95360    0.29160    1.000
    O108     O        0.79346    0.06840    0.30290    1.000
    Tb21     Tb       0.60367    0.95427    0.08388    1.000
    Tb22     Tb       0.70624    0.08256    0.21613    1.000
    Tb23     Tb       0.67469    0.04063    0.03423    1.000
    Tb24     Tb       0.73756    0.90508    0.18367    1.000
    C259     C        0.94350    0.54850    0.57130    1.000
    C260     C        0.99080    0.56930    0.64020    1.000
    C261     C        0.99890    0.63900    0.65910    1.000
    H133     H        0.97450    0.67190    0.63070    1.000
    C262     C        0.04300    0.65890    0.71970    1.000
    H134     H        0.04920    0.70540    0.73360    1.000
    C263     C        0.07810    0.60910    0.75980    1.000
    H135     H        0.10870    0.62350    0.80000    1.000
    C264     C        0.02750    0.52150    0.68540    1.000
    C265     C        0.02010    0.44400    0.67510    1.000
    C266     C        0.97450    0.35140    0.66630    1.000
    H136     H        0.94690    0.33470    0.66030    1.000
    C267     C        0.00670    0.30420    0.67400    1.000
    H137     H        0.00190    0.25670    0.67520    1.000
    C268     C        0.04660    0.32810    0.67980    1.000
    H138     H        0.06870    0.29670    0.68390    1.000
    C269     C        0.05350    0.39950    0.67960    1.000
    C270     C        0.09210    0.42540    0.67440    1.000
    C271     C        0.84600    0.31600    0.31260    1.000
    C272     C        0.84940    0.26080    0.27220    1.000
    C273     C        0.88970    0.21810    0.30610    1.000
    H139     H        0.91640    0.22680    0.35300    1.000
    C274     C        0.89050    0.16330    0.27150    1.000
    H140     H        0.91720    0.13300    0.29450    1.000
    C275     C        0.85200    0.15330    0.20320    1.000
    H141     H        0.85270    0.11470    0.18030    1.000
    C276     C        0.81140    0.24910    0.20150    1.000
    C277     C        0.76850    0.29740    0.15610    1.000
    C278     C        0.74230    0.40660    0.11460    1.000
    H142     H        0.74950    0.45370    0.11620    1.000
    C279     C        0.69370    0.38650    0.06540    1.000
    H143     H        0.66930    0.41870    0.03490    1.000
    C280     C        0.68320    0.31780    0.06370    1.000
    H144     H        0.65110    0.30170    0.03160    1.000
    C281     C        0.72110    0.27220    0.11040    1.000
    C282     C        0.70920    0.19710    0.11480    1.000
    C283     C        0.77720    0.63640    0.16120    1.000
    C284     C        0.78920    0.66840    0.11660    1.000
    C285     C        0.83040    0.70990    0.15150    1.000
    H145     H        0.84640    0.72190    0.19860    1.000
    C286     C        0.84790    0.73330    0.11680    1.000
    H146     H        0.87590    0.76100    0.13980    1.000
    C287     C        0.82320    0.71510    0.04840    1.000
    H147     H        0.83600    0.72970    0.02560    1.000
    C288     C        0.76420    0.65440    0.04430    1.000
    C289     C        0.71590    0.61870    0.00070    1.000
    C290     C        0.64400    0.60100    0.98500    1.000
    H148     H        0.62520    0.60680    0.00040    1.000
    C291     C        0.62490    0.56510    0.92470    1.000
    H149     H        0.59330    0.54670    0.89920    1.000
    C292     C        0.65150    0.55580    0.90110    1.000
    H150     H        0.63790    0.53220    0.85890    1.000
    C293     C        0.69860    0.58140    0.94000    1.000
    C294     C        0.72910    0.56300    0.91740    1.000
    C295     C        0.68440    0.51130    0.18050    1.000
    C296     C        0.62980    0.50910    0.12510    1.000
    C297     C        0.60210    0.56820    0.09860    1.000
    H151     H        0.61740    0.61150    0.11420    1.000
    C298     C        0.55170    0.56480    0.04930    1.000
    H152     H        0.53380    0.60600    0.03120    1.000
    C299     C        0.52760    0.50280    0.02620    1.000
    C300     C        0.55610    0.44350    0.04840    1.000
    H153     H        0.54110    0.40050    0.02950    1.000
    C301     C        0.60710    0.44700    0.09890    1.000
    H154     H        0.62570    0.40620    0.11450    1.000
    N37      N        0.07106    0.54120    0.74490    1.000
    N38      N        0.97997    0.42110    0.66680    1.000
    N39      N        0.81240    0.19540    0.16570    1.000
    N40      N        0.77940    0.36470    0.15950    1.000
    N41      N        0.68910    0.62820    0.02300    1.000
    N42      N        0.78200    0.67780    0.01120    1.000
    O109     O        0.90538    0.57940    0.55380    1.000
    O110     O        0.94508    0.50320    0.53451    1.000
    O111     O        0.08081    0.48010    0.63780    1.000
    O112     O        0.13147    0.39270    0.70390    1.000
    O113     O        0.88367    0.35160    0.35540    1.000
    O114     O        0.80546    0.32230    0.30170    1.000
    O115     O        0.71628    0.18070    0.17040    1.000
    O116     O        0.69344    0.15880    0.06250    1.000
    O117     O        0.77213    0.67560    0.19860    1.000
    O118     O        0.77833    0.57130    0.16766    1.000
    O119     O        0.76616    0.52520    0.95940    1.000
    O120     O        0.71504    0.58400    0.85800    1.000
    O121     O        0.76472    0.52850    0.34216    1.000
    O122     O        0.85901    0.56255    0.40551    1.000
    O123     O        0.81595    0.46618    0.29909    1.000
    O124     O        0.83585    0.43150    0.42858    1.000
    O125     O        0.70494    0.45360    0.20840    1.000
    O126     O        0.70654    0.56840    0.19710    1.000
    Tb25     Tb       0.89633    0.45427    0.41612    1.000
    Tb26     Tb       0.79376    0.58256    0.28387    1.000
    Tb27     Tb       0.82531    0.54063    0.46576    1.000
    Tb28     Tb       0.76244    0.40508    0.31633    1.000
    C302     C        0.44350    0.04850    0.57130    1.000
    C303     C        0.49080    0.06930    0.64020    1.000
    C304     C        0.49890    0.13900    0.65910    1.000
    H155     H        0.47450    0.17190    0.63070    1.000
    C305     C        0.54300    0.15890    0.71970    1.000
    H156     H        0.54920    0.20540    0.73360    1.000
    C306     C        0.57810    0.10910    0.75980    1.000
    H157     H        0.60870    0.12350    0.80000    1.000
    C307     C        0.52750    0.02150    0.68540    1.000
    C308     C        0.52010    0.94400    0.67510    1.000
    C309     C        0.47450    0.85140    0.66630    1.000
    H158     H        0.44690    0.83470    0.66030    1.000
    C310     C        0.50670    0.80420    0.67400    1.000
    H159     H        0.50190    0.75670    0.67520    1.000
    C311     C        0.54660    0.82810    0.67980    1.000
    H160     H        0.56870    0.79670    0.68390    1.000
    C312     C        0.55350    0.89950    0.67960    1.000
    C313     C        0.59210    0.92540    0.67440    1.000
    C314     C        0.34600    0.81600    0.31260    1.000
    C315     C        0.34940    0.76080    0.27220    1.000
    C316     C        0.38970    0.71810    0.30610    1.000
    H161     H        0.41640    0.72680    0.35300    1.000
    C317     C        0.39050    0.66330    0.27150    1.000
    H162     H        0.41720    0.63300    0.29450    1.000
    C318     C        0.35200    0.65330    0.20320    1.000
    H163     H        0.35270    0.61470    0.18030    1.000
    C319     C        0.31140    0.74910    0.20150    1.000
    C320     C        0.26850    0.79740    0.15610    1.000
    C321     C        0.24230    0.90660    0.11460    1.000
    H164     H        0.24950    0.95370    0.11620    1.000
    C322     C        0.19370    0.88650    0.06540    1.000
    H165     H        0.16930    0.91870    0.03490    1.000
    C323     C        0.18320    0.81780    0.06370    1.000
    H166     H        0.15110    0.80170    0.03160    1.000
    C324     C        0.22110    0.77220    0.11040    1.000
    C325     C        0.20920    0.69710    0.11480    1.000
    C326     C        0.27720    0.13640    0.16120    1.000
    C327     C        0.28920    0.16840    0.11660    1.000
    C328     C        0.33040    0.20990    0.15150    1.000
    H167     H        0.34640    0.22190    0.19860    1.000
    C329     C        0.34790    0.23330    0.11680    1.000
    H168     H        0.37590    0.26100    0.13980    1.000
    C330     C        0.32320    0.21510    0.04840    1.000
    H169     H        0.33600    0.22970    0.02560    1.000
    C331     C        0.26420    0.15440    0.04430    1.000
    C332     C        0.21590    0.11870    0.00070    1.000
    C333     C        0.14400    0.10100    0.98500    1.000
    H170     H        0.12520    0.10680    0.00040    1.000
    C334     C        0.12490    0.06510    0.92470    1.000
    H171     H        0.09330    0.04670    0.89920    1.000
    C335     C        0.15150    0.05580    0.90110    1.000
    H172     H        0.13790    0.03220    0.85890    1.000
    C336     C        0.19860    0.08140    0.94000    1.000
    C337     C        0.22910    0.06300    0.91740    1.000
    C338     C        0.18440    0.01130    0.18050    1.000
    C339     C        0.12980    0.00910    0.12510    1.000
    C340     C        0.10210    0.06820    0.09860    1.000
    H173     H        0.11740    0.11150    0.11420    1.000
    C341     C        0.05170    0.06480    0.04930    1.000
    H174     H        0.03380    0.10600    0.03120    1.000
    C342     C        0.02760    0.00280    0.02620    1.000
    C343     C        0.05610    0.94350    0.04840    1.000
    H175     H        0.04110    0.90050    0.02950    1.000
    C344     C        0.10710    0.94700    0.09890    1.000
    H176     H        0.12570    0.90620    0.11450    1.000
    N43      N        0.57106    0.04120    0.74490    1.000
    N44      N        0.47997    0.92110    0.66680    1.000
    N45      N        0.31240    0.69540    0.16570    1.000
    N46      N        0.27940    0.86470    0.15950    1.000
    N47      N        0.18910    0.12820    0.02300    1.000
    N48      N        0.28200    0.17780    0.01120    1.000
    O127     O        0.40538    0.07940    0.55380    1.000
    O128     O        0.44508    0.00320    0.53451    1.000
    O129     O        0.58081    0.98010    0.63780    1.000
    O130     O        0.63147    0.89270    0.70390    1.000
    O131     O        0.38367    0.85160    0.35540    1.000
    O132     O        0.30546    0.82230    0.30170    1.000
    O133     O        0.21628    0.68070    0.17040    1.000
    O134     O        0.19344    0.65880    0.06250    1.000
    O135     O        0.27213    0.17560    0.19860    1.000
    O136     O        0.27833    0.07130    0.16766    1.000
    O137     O        0.26616    0.02520    0.95940    1.000
    O138     O        0.21504    0.08400    0.85800    1.000
    O139     O        0.26472    0.02850    0.34216    1.000
    O140     O        0.35901    0.06255    0.40551    1.000
    O141     O        0.31595    0.96618    0.29909    1.000
    O142     O        0.33585    0.93150    0.42858    1.000
    O143     O        0.20494    0.95360    0.20840    1.000
    O144     O        0.20654    0.06840    0.19710    1.000
    Tb29     Tb       0.39633    0.95427    0.41612    1.000
    Tb30     Tb       0.29376    0.08256    0.28387    1.000
    Tb31     Tb       0.32531    0.04063    0.46577    1.000
    Tb32     Tb       0.26244    0.90508    0.31633    1.000
