# CIF file generated by openbabel 3.1.0, see https://openbabel.org
data_I
_chemical_name_common 'TANBOZ_clean'
_cell_length_a 8.582
_cell_length_b 11.745
_cell_length_c 12.979
_cell_angle_alpha 90
_cell_angle_beta 90
_cell_angle_gamma 101.1
_space_group_name_H-M_alt 'P 1'
_space_group_name_Hall 'P 1'
loop_
    _symmetry_equiv_pos_as_xyz
    x,y,z
loop_
    _atom_site_label
    _atom_site_type_symbol
    _atom_site_fract_x
    _atom_site_fract_y
    _atom_site_fract_z
    _atom_site_occupancy
    Cu1      Cu       0.95589    0.64621    0.80131    1.000
    Cu2      Cu       0.05193    0.90119    0.48973    1.000
    Cu3      Cu       0.54411    0.85379    0.30131    1.000
    Cu4      Cu       0.44807    0.59881    0.98973    1.000
    Cu5      Cu       0.04411    0.35379    0.19869    1.000
    Cu6      Cu       0.94807    0.09881    0.51027    1.000
    Cu7      Cu       0.45589    0.14621    0.69869    1.000
    Cu8      Cu       0.55193    0.40119    0.01027    1.000
    C1       C        0.63840    0.57850    0.91410    1.000
    C2       C        0.98150    0.73400    0.67700    1.000
    C3       C        0.13380    0.61640    0.87370    1.000
    C4       C        0.86160    0.92150    0.41410    1.000
    C5       C        0.51850    0.76600    0.17700    1.000
    C6       C        0.36620    0.88360    0.37370    1.000
    C7       C        0.36160    0.42150    0.08590    1.000
    C8       C        0.01850    0.26600    0.32300    1.000
    C9       C        0.86620    0.38360    0.12630    1.000
    C10      C        0.13840    0.07850    0.58590    1.000
    C11      C        0.48150    0.23400    0.82300    1.000
    C12      C        0.63380    0.11640    0.62630    1.000
    N1       N        0.75120    0.59700    0.86700    1.000
    N2       N        0.00720    0.79300    0.60780    1.000
    N3       N        0.25100    0.60800    0.91540    1.000
    N4       N        0.74880    0.90300    0.36700    1.000
    N5       N        0.49280    0.70700    0.10780    1.000
    N6       N        0.24900    0.89200    0.41540    1.000
    N7       N        0.24880    0.40300    0.13300    1.000
    N8       N        0.99280    0.20700    0.39220    1.000
    N9       N        0.74900    0.39200    0.08460    1.000
    N10      N        0.25120    0.09700    0.63300    1.000
    N11      N        0.50720    0.29300    0.89220    1.000
    N12      N        0.75100    0.10800    0.58460    1.000
