# CIF file generated by openbabel 3.1.0, see https://openbabel.org
data_I
_chemical_name_common 'image0'
_cell_length_a 15.083
_cell_length_b 20.531
_cell_length_c 3.6656
_cell_angle_alpha 90
_cell_angle_beta 90
_cell_angle_gamma 90
_space_group_name_H-M_alt 'P 1'
_space_group_name_Hall 'P 1'
loop_
    _symmetry_equiv_pos_as_xyz
    x,y,z
loop_
    _atom_site_label
    _atom_site_type_symbol
    _atom_site_fract_x
    _atom_site_fract_y
    _atom_site_fract_z
    _atom_site_occupancy
    N1       N        0.66910    0.58890    0.46580    1.000
    C1       C        0.61830    0.63840    0.35740    1.000
    H1       H        0.56040    0.62950    0.28570    1.000
    C2       C        0.64710    0.70150    0.34630    1.000
    H2       H        0.60950    0.73430    0.26490    1.000
    C3       C        0.73190    0.71630    0.45600    1.000
    C4       C        0.78590    0.66400    0.56790    1.000
    H3       H        0.84450    0.67130    0.63650    1.000
    C5       C        0.75120    0.60240    0.57450    1.000
    H4       H        0.78650    0.56840    0.65870    1.000
    N2       N        0.16910    0.08890    0.46580    1.000
    C6       C        0.11830    0.13840    0.35740    1.000
    H5       H        0.06040    0.12950    0.28570    1.000
    C7       C        0.14710    0.20150    0.34630    1.000
    H6       H        0.10950    0.23430    0.26490    1.000
    C8       C        0.23190    0.21630    0.45600    1.000
    C9       C        0.28590    0.16400    0.56790    1.000
    H7       H        0.34450    0.17130    0.63650    1.000
    C10      C        0.25120    0.10240    0.57450    1.000
    H8       H        0.28650    0.06840    0.65870    1.000
    N3       N        0.33090    0.41110    0.46580    1.000
    C11      C        0.38170    0.36160    0.35740    1.000
    H9       H        0.43960    0.37050    0.28570    1.000
    C12      C        0.35290    0.29850    0.34630    1.000
    H10      H        0.39050    0.26570    0.26490    1.000
    C13      C        0.26810    0.28370    0.45600    1.000
    C14      C        0.21410    0.33600    0.56790    1.000
    H11      H        0.15550    0.32870    0.63650    1.000
    C15      C        0.24880    0.39760    0.57450    1.000
    H12      H        0.21350    0.43160    0.65870    1.000
    N4       N        0.83090    0.91110    0.46580    1.000
    C16      C        0.88170    0.86160    0.35740    1.000
    H13      H        0.93960    0.87050    0.28570    1.000
    C17      C        0.85290    0.79850    0.34630    1.000
    H14      H        0.89050    0.76570    0.26490    1.000
    C18      C        0.76810    0.78370    0.45600    1.000
    C19      C        0.71410    0.83600    0.56790    1.000
    H15      H        0.65550    0.82870    0.63650    1.000
    C20      C        0.74880    0.89760    0.57450    1.000
    H16      H        0.71350    0.93160    0.65870    1.000
    N5       N        0.33090    0.58890    0.53420    1.000
    C21      C        0.38170    0.63840    0.64260    1.000
    H17      H        0.43960    0.62950    0.71430    1.000
    C22      C        0.35290    0.70150    0.65370    1.000
    H18      H        0.39050    0.73430    0.73510    1.000
    C23      C        0.26810    0.71630    0.54400    1.000
    C24      C        0.21410    0.66400    0.43210    1.000
    H19      H        0.15550    0.67130    0.36350    1.000
    C25      C        0.24880    0.60240    0.42550    1.000
    H20      H        0.21350    0.56840    0.34130    1.000
    N6       N        0.83090    0.08890    0.53420    1.000
    C26      C        0.88170    0.13840    0.64260    1.000
    H21      H        0.93960    0.12950    0.71430    1.000
    C27      C        0.85290    0.20150    0.65370    1.000
    H22      H        0.89050    0.23430    0.73510    1.000
    C28      C        0.76810    0.21630    0.54400    1.000
    C29      C        0.71410    0.16400    0.43210    1.000
    H23      H        0.65550    0.17130    0.36350    1.000
    C30      C        0.74880    0.10240    0.42550    1.000
    H24      H        0.71350    0.06840    0.34130    1.000
    N7       N        0.66910    0.41110    0.53420    1.000
    C31      C        0.61830    0.36160    0.64260    1.000
    H25      H        0.56040    0.37050    0.71430    1.000
    C32      C        0.64710    0.29850    0.65370    1.000
    H26      H        0.60950    0.26570    0.73510    1.000
    C33      C        0.73190    0.28370    0.54400    1.000
    C34      C        0.78590    0.33600    0.43210    1.000
    H27      H        0.84450    0.32870    0.36350    1.000
    C35      C        0.75120    0.39760    0.42550    1.000
    H28      H        0.78650    0.43160    0.34130    1.000
    N8       N        0.16910    0.91110    0.53420    1.000
    C36      C        0.11830    0.86160    0.64260    1.000
    H29      H        0.06040    0.87050    0.71430    1.000
    C37      C        0.14710    0.79850    0.65370    1.000
    H30      H        0.10950    0.76570    0.73510    1.000
    C38      C        0.23190    0.78370    0.54400    1.000
    C39      C        0.28590    0.83600    0.43210    1.000
    H31      H        0.34450    0.82870    0.36350    1.000
    C40      C        0.25120    0.89760    0.42550    1.000
    H32      H        0.28650    0.93160    0.34130    1.000
    Cu1      Cu       0.62178    0.50000    0.50000    1.000
    Cu2      Cu       0.12178    0.00000    0.50000    1.000
    Cu3      Cu       0.37822    0.50000    0.50000    1.000
    Cu4      Cu       0.87822    0.00000    0.50000    1.000
    Cl1      Cl       0.50000    0.50000    0.00000    1.000
    Cl2      Cl       0.00000    0.00000    0.00000    1.000
