# CIF file generated by openbabel 3.1.0, see https://openbabel.org
data_I
_chemical_name_common 'image0'
_cell_length_a 7.2459
_cell_length_b 19.2242
_cell_length_c 25.807
_cell_angle_alpha 90
_cell_angle_beta 90
_cell_angle_gamma 90
_space_group_name_H-M_alt 'P 1'
_space_group_name_Hall 'P 1'
loop_
    _symmetry_equiv_pos_as_xyz
    x,y,z
loop_
    _atom_site_label
    _atom_site_type_symbol
    _atom_site_fract_x
    _atom_site_fract_y
    _atom_site_fract_z
    _atom_site_occupancy
    Ba1      Ba       0.18198    0.31140    0.89257    1.000
    O1       O        0.62090    0.77120    0.46080    1.000
    O2       O        0.51380    0.87550    0.47420    1.000
    O3       O        0.10960    0.45160    0.87610    1.000
    O4       O        0.97110    0.50380    0.94010    1.000
    O5       O        0.05840    0.17710    0.87980    1.000
    O6       O        0.32570    0.18590    0.84160    1.000
    C1       C        0.18880    0.15420    0.85520    1.000
    C2       C        0.15900    0.08070    0.83160    1.000
    C3       C        0.22320    0.06320    0.78580    1.000
    H1       H        0.29690    0.09430    0.76760    1.000
    C4       C        0.18200    0.99790    0.76390    1.000
    H2       H        0.22160    0.98680    0.73070    1.000
    C5       C        0.08240    0.95140    0.79230    1.000
    C6       C        0.02690    0.96660    0.84200    1.000
    H3       H        0.96890    0.93340    0.86250    1.000
    C7       C        0.05970    0.03270    0.86040    1.000
    H4       H        0.01430    0.04530    0.89270    1.000
    C8       C        0.02790    0.88140    0.77040    1.000
    C9       C        0.60540    0.82360    0.48900    1.000
    C10      C        0.68320    0.82130    0.54260    1.000
    C11      C        0.66870    0.87800    0.57640    1.000
    H5       H        0.60910    0.91810    0.56520    1.000
    C12      C        0.73800    0.87610    0.62420    1.000
    H6       H        0.72420    0.91490    0.64540    1.000
    C13      C        0.77360    0.76260    0.56080    1.000
    H7       H        0.78830    0.72420    0.53930    1.000
    C14      C        0.84140    0.76100    0.61030    1.000
    H8       H        0.89710    0.72060    0.62250    1.000
    C15      C        0.03650    0.50430    0.89510    1.000
    C16      C        0.02410    0.56990    0.86690    1.000
    C17      C        0.06160    0.57220    0.81330    1.000
    H9       H        0.09760    0.53150    0.79660    1.000
    C18      C        0.04700    0.63160    0.78490    1.000
    H10      H        0.07230    0.63080    0.74960    1.000
    C19      C        0.99540    0.69230    0.80820    1.000
    C20      C        0.96100    0.69060    0.86120    1.000
    H11      H        0.92920    0.73180    0.87790    1.000
    C21      C        0.97110    0.63130    0.88920    1.000
    H12      H        0.94170    0.63220    0.92430    1.000
    C22      C        0.97600    0.75840    0.77700    1.000
    C23      C        0.91390    0.75770    0.72570    1.000
    H13      H        0.87740    0.71570    0.71110    1.000
    C24      C        0.90520    0.81680    0.69660    1.000
    C25      C        0.96770    0.87880    0.71750    1.000
    H14      H        0.97050    0.91870    0.69730    1.000
    C26      C        0.02810    0.82130    0.79880    1.000
    H15      H        0.06390    0.82270    0.83340    1.000
    C27      C        0.82830    0.81950    0.64340    1.000
    Ba2      Ba       0.81802    0.68860    0.39257    1.000
    O7       O        0.37910    0.22880    0.96080    1.000
    O8       O        0.48620    0.12450    0.97420    1.000
    O9       O        0.89040    0.54840    0.37610    1.000
    O10      O        0.02890    0.49620    0.44010    1.000
    O11      O        0.94160    0.82290    0.37980    1.000
    O12      O        0.67430    0.81410    0.34160    1.000
    C28      C        0.81120    0.84580    0.35520    1.000
    C29      C        0.84100    0.91930    0.33160    1.000
    C30      C        0.77680    0.93680    0.28580    1.000
    H16      H        0.70310    0.90570    0.26760    1.000
    C31      C        0.81800    0.00210    0.26390    1.000
    H17      H        0.77840    0.01320    0.23070    1.000
    C32      C        0.91760    0.04860    0.29230    1.000
    C33      C        0.97310    0.03340    0.34200    1.000
    H18      H        0.03110    0.06660    0.36250    1.000
    C34      C        0.94030    0.96730    0.36040    1.000
    H19      H        0.98570    0.95470    0.39270    1.000
    C35      C        0.97210    0.11860    0.27040    1.000
    C36      C        0.39460    0.17640    0.98900    1.000
    C37      C        0.31680    0.17870    0.04260    1.000
    C38      C        0.33130    0.12200    0.07640    1.000
    H20      H        0.39090    0.08190    0.06520    1.000
    C39      C        0.26200    0.12390    0.12420    1.000
    H21      H        0.27580    0.08510    0.14540    1.000
    C40      C        0.22640    0.23740    0.06080    1.000
    H22      H        0.21170    0.27580    0.03930    1.000
    C41      C        0.15860    0.23900    0.11030    1.000
    H23      H        0.10290    0.27940    0.12250    1.000
    C42      C        0.96350    0.49570    0.39510    1.000
    C43      C        0.97590    0.43010    0.36690    1.000
    C44      C        0.93840    0.42780    0.31330    1.000
    H24      H        0.90240    0.46850    0.29660    1.000
    C45      C        0.95300    0.36840    0.28490    1.000
    H25      H        0.92770    0.36920    0.24960    1.000
    C46      C        0.00460    0.30770    0.30820    1.000
    C47      C        0.03900    0.30940    0.36120    1.000
    H26      H        0.07080    0.26820    0.37790    1.000
    C48      C        0.02890    0.36870    0.38920    1.000
    H27      H        0.05830    0.36780    0.42430    1.000
    C49      C        0.02400    0.24160    0.27700    1.000
    C50      C        0.08610    0.24230    0.22570    1.000
    H28      H        0.12260    0.28430    0.21110    1.000
    C51      C        0.09480    0.18320    0.19660    1.000
    C52      C        0.03230    0.12120    0.21750    1.000
    H29      H        0.02950    0.08130    0.19730    1.000
    C53      C        0.97190    0.17870    0.29880    1.000
    H30      H        0.93610    0.17730    0.33340    1.000
    C54      C        0.17170    0.18050    0.14340    1.000
    Ba3      Ba       0.68198    0.18860    0.89257    1.000
    O13      O        0.12090    0.72880    0.46080    1.000
    O14      O        0.01380    0.62450    0.47420    1.000
    O15      O        0.60960    0.04840    0.87610    1.000
    O16      O        0.47110    0.99620    0.94010    1.000
    O17      O        0.55840    0.32290    0.87980    1.000
    O18      O        0.82570    0.31410    0.84160    1.000
    C55      C        0.68880    0.34580    0.85520    1.000
    C56      C        0.65900    0.41930    0.83160    1.000
    C57      C        0.72320    0.43680    0.78580    1.000
    H31      H        0.79690    0.40570    0.76760    1.000
    C58      C        0.68200    0.50210    0.76390    1.000
    H32      H        0.72160    0.51320    0.73070    1.000
    C59      C        0.58240    0.54860    0.79230    1.000
    C60      C        0.52690    0.53340    0.84200    1.000
    H33      H        0.46890    0.56660    0.86250    1.000
    C61      C        0.55970    0.46730    0.86040    1.000
    H34      H        0.51430    0.45470    0.89270    1.000
    C62      C        0.52790    0.61860    0.77040    1.000
    C63      C        0.10540    0.67640    0.48900    1.000
    C64      C        0.18320    0.67870    0.54260    1.000
    C65      C        0.16870    0.62200    0.57640    1.000
    H35      H        0.10910    0.58190    0.56520    1.000
    C66      C        0.23800    0.62390    0.62420    1.000
    H36      H        0.22420    0.58510    0.64540    1.000
    C67      C        0.27360    0.73740    0.56080    1.000
    H37      H        0.28830    0.77580    0.53930    1.000
    C68      C        0.34140    0.73900    0.61030    1.000
    H38      H        0.39710    0.77940    0.62250    1.000
    C69      C        0.53650    0.99570    0.89510    1.000
    C70      C        0.52410    0.93010    0.86690    1.000
    C71      C        0.56160    0.92780    0.81330    1.000
    H39      H        0.59760    0.96850    0.79660    1.000
    C72      C        0.54700    0.86840    0.78490    1.000
    H40      H        0.57230    0.86920    0.74960    1.000
    C73      C        0.49540    0.80770    0.80820    1.000
    C74      C        0.46100    0.80940    0.86120    1.000
    H41      H        0.42920    0.76820    0.87790    1.000
    C75      C        0.47110    0.86870    0.88920    1.000
    H42      H        0.44170    0.86780    0.92430    1.000
    C76      C        0.47600    0.74160    0.77700    1.000
    C77      C        0.41390    0.74230    0.72570    1.000
    H43      H        0.37740    0.78430    0.71110    1.000
    C78      C        0.40520    0.68320    0.69660    1.000
    C79      C        0.46770    0.62120    0.71750    1.000
    H44      H        0.47050    0.58130    0.69730    1.000
    C80      C        0.52810    0.67870    0.79880    1.000
    H45      H        0.56390    0.67730    0.83340    1.000
    C81      C        0.32830    0.68050    0.64340    1.000
    Ba4      Ba       0.31802    0.81140    0.39257    1.000
    O19      O        0.87910    0.27120    0.96080    1.000
    O20      O        0.98620    0.37550    0.97420    1.000
    O21      O        0.39040    0.95160    0.37610    1.000
    O22      O        0.52890    0.00380    0.44010    1.000
    O23      O        0.44160    0.67710    0.37980    1.000
    O24      O        0.17430    0.68590    0.34160    1.000
    C82      C        0.31120    0.65420    0.35520    1.000
    C83      C        0.34100    0.58070    0.33160    1.000
    C84      C        0.27680    0.56320    0.28580    1.000
    H46      H        0.20310    0.59430    0.26760    1.000
    C85      C        0.31800    0.49790    0.26390    1.000
    H47      H        0.27840    0.48680    0.23070    1.000
    C86      C        0.41760    0.45140    0.29230    1.000
    C87      C        0.47310    0.46660    0.34200    1.000
    H48      H        0.53110    0.43340    0.36250    1.000
    C88      C        0.44030    0.53270    0.36040    1.000
    H49      H        0.48570    0.54530    0.39270    1.000
    C89      C        0.47210    0.38140    0.27040    1.000
    C90      C        0.89460    0.32360    0.98900    1.000
    C91      C        0.81680    0.32130    0.04260    1.000
    C92      C        0.83130    0.37800    0.07640    1.000
    H50      H        0.89090    0.41810    0.06520    1.000
    C93      C        0.76200    0.37610    0.12420    1.000
    H51      H        0.77580    0.41490    0.14540    1.000
    C94      C        0.72640    0.26260    0.06080    1.000
    H52      H        0.71170    0.22420    0.03930    1.000
    C95      C        0.65860    0.26100    0.11030    1.000
    H53      H        0.60290    0.22060    0.12250    1.000
    C96      C        0.46350    0.00430    0.39510    1.000
    C97      C        0.47590    0.06990    0.36690    1.000
    C98      C        0.43840    0.07220    0.31330    1.000
    H54      H        0.40240    0.03150    0.29660    1.000
    C99      C        0.45300    0.13160    0.28490    1.000
    H55      H        0.42770    0.13080    0.24960    1.000
    C100     C        0.50460    0.19230    0.30820    1.000
    C101     C        0.53900    0.19060    0.36120    1.000
    H56      H        0.57080    0.23180    0.37790    1.000
    C102     C        0.52890    0.13130    0.38920    1.000
    H57      H        0.55830    0.13220    0.42430    1.000
    C103     C        0.52400    0.25840    0.27700    1.000
    C104     C        0.58610    0.25770    0.22570    1.000
    H58      H        0.62260    0.21570    0.21110    1.000
    C105     C        0.59480    0.31680    0.19660    1.000
    C106     C        0.53230    0.37880    0.21750    1.000
    H59      H        0.52950    0.41870    0.19730    1.000
    C107     C        0.47190    0.32130    0.29880    1.000
    H60      H        0.43610    0.32270    0.33340    1.000
    C108     C        0.67170    0.31950    0.14340    1.000
