# CIF file generated by openbabel 3.1.0, see https://openbabel.org
data_I
_chemical_name_common 'image0'
_cell_length_a 12.6139
_cell_length_b 15.7005
_cell_length_c 16.6473
_cell_angle_alpha 90
_cell_angle_beta 90
_cell_angle_gamma 90
_space_group_name_H-M_alt 'P 1'
_space_group_name_Hall 'P 1'
loop_
    _symmetry_equiv_pos_as_xyz
    x,y,z
loop_
    _atom_site_label
    _atom_site_type_symbol
    _atom_site_fract_x
    _atom_site_fract_y
    _atom_site_fract_z
    _atom_site_occupancy
    Cd1      Cd       0.89942    0.00386    0.58115    1.000
    C1       C        0.90338    0.26358    0.90928    1.000
    C2       C        0.80388    0.08980    0.86693    1.000
    H1       H        0.77420    0.03650    0.85780    1.000
    O1       O        0.90817    0.13507    0.67619    1.000
    O2       O        0.97377    0.37538    0.00314    1.000
    O3       O        0.99608    0.40238    0.87339    1.000
    C3       C        0.85954    0.13297    0.81125    1.000
    C4       C        0.96079    0.35424    0.93098    1.000
    C5       C        0.86754    0.08401    0.72909    1.000
    O4       O        0.70677    0.14232    0.05872    1.000
    C6       C        0.84576    0.22031    0.96408    1.000
    H2       H        0.83690    0.24270    0.01540    1.000
    C7       C        0.90788    0.21918    0.83267    1.000
    H3       H        0.94470    0.24660    0.79180    1.000
    C8       C        0.79502    0.13510    0.94269    1.000
    C9       C        0.72928    0.08998    0.99974    1.000
    O5       O        0.83468    0.99731    0.71499    1.000
    O6       O        0.69655    0.00315    0.98289    1.000
    Cd2      Cd       0.60058    0.99614    0.08115    1.000
    C10      C        0.59662    0.73642    0.40928    1.000
    C11      C        0.69612    0.91020    0.36693    1.000
    H4       H        0.72580    0.96350    0.35780    1.000
    O7       O        0.59183    0.86493    0.17619    1.000
    O8       O        0.52623    0.62462    0.50314    1.000
    O9       O        0.50392    0.59762    0.37339    1.000
    C12      C        0.64046    0.86703    0.31125    1.000
    C13      C        0.53921    0.64576    0.43098    1.000
    C14      C        0.63246    0.91599    0.22909    1.000
    O10      O        0.79323    0.85768    0.55872    1.000
    C15      C        0.65424    0.77969    0.46408    1.000
    H5       H        0.66310    0.75730    0.51540    1.000
    C16      C        0.59212    0.78082    0.33267    1.000
    H6       H        0.55530    0.75340    0.29180    1.000
    C17      C        0.70498    0.86490    0.44269    1.000
    C18      C        0.77072    0.91002    0.49974    1.000
    O11      O        0.66532    0.00269    0.21499    1.000
    O12      O        0.80345    0.99685    0.48289    1.000
    Cd3      Cd       0.10058    0.50386    0.91885    1.000
    C19      C        0.09662    0.76358    0.59072    1.000
    C20      C        0.19612    0.58980    0.63307    1.000
    H7       H        0.22580    0.53650    0.64220    1.000
    O13      O        0.09183    0.63507    0.82381    1.000
    O14      O        0.02623    0.87538    0.49686    1.000
    O15      O        0.00392    0.90238    0.62661    1.000
    C21      C        0.14046    0.63297    0.68875    1.000
    C22      C        0.03921    0.85424    0.56902    1.000
    C23      C        0.13246    0.58401    0.77091    1.000
    O16      O        0.29323    0.64232    0.44128    1.000
    C24      C        0.15424    0.72031    0.53592    1.000
    H8       H        0.16310    0.74270    0.48460    1.000
    C25      C        0.09212    0.71918    0.66733    1.000
    H9       H        0.05530    0.74660    0.70820    1.000
    C26      C        0.20498    0.63510    0.55731    1.000
    C27      C        0.27072    0.58998    0.50026    1.000
    O17      O        0.16532    0.49731    0.78501    1.000
    O18      O        0.30345    0.50315    0.51711    1.000
    Cd4      Cd       0.39942    0.49614    0.41885    1.000
    C28      C        0.40338    0.23642    0.09072    1.000
    C29      C        0.30388    0.41020    0.13307    1.000
    H10      H        0.27420    0.46350    0.14220    1.000
    O19      O        0.40817    0.36493    0.32381    1.000
    O20      O        0.47377    0.12462    0.99686    1.000
    O21      O        0.49608    0.09762    0.12661    1.000
    C30      C        0.35954    0.36703    0.18875    1.000
    C31      C        0.46079    0.14576    0.06902    1.000
    C32      C        0.36754    0.41599    0.27091    1.000
    O22      O        0.20677    0.35768    0.94128    1.000
    C33      C        0.34576    0.27969    0.03592    1.000
    H11      H        0.33690    0.25730    0.98460    1.000
    C34      C        0.40788    0.28082    0.16733    1.000
    H12      H        0.44470    0.25340    0.20820    1.000
    C35      C        0.29502    0.36490    0.05731    1.000
    C36      C        0.22928    0.41002    0.00026    1.000
    O23      O        0.33468    0.50269    0.28501    1.000
    O24      O        0.19655    0.49685    0.01711    1.000
    Cd5      Cd       0.10058    0.99614    0.41885    1.000
    C37      C        0.09662    0.73642    0.09072    1.000
    C38      C        0.19612    0.91020    0.13307    1.000
    H13      H        0.22580    0.96350    0.14220    1.000
    O25      O        0.09183    0.86493    0.32381    1.000
    O26      O        0.02623    0.62462    0.99686    1.000
    O27      O        0.00392    0.59762    0.12661    1.000
    C39      C        0.14046    0.86703    0.18875    1.000
    C40      C        0.03921    0.64576    0.06902    1.000
    C41      C        0.13246    0.91599    0.27091    1.000
    O28      O        0.29323    0.85768    0.94128    1.000
    C42      C        0.15424    0.77969    0.03592    1.000
    H14      H        0.16310    0.75730    0.98460    1.000
    C43      C        0.09212    0.78082    0.16733    1.000
    H15      H        0.05530    0.75340    0.20820    1.000
    C44      C        0.20498    0.86490    0.05731    1.000
    C45      C        0.27072    0.91002    0.00026    1.000
    O29      O        0.16532    0.00269    0.28501    1.000
    O30      O        0.30345    0.99685    0.01711    1.000
    Cd6      Cd       0.39942    0.00386    0.91885    1.000
    C46      C        0.40338    0.26358    0.59072    1.000
    C47      C        0.30388    0.08980    0.63307    1.000
    H16      H        0.27420    0.03650    0.64220    1.000
    O31      O        0.40817    0.13507    0.82381    1.000
    O32      O        0.47377    0.37538    0.49686    1.000
    O33      O        0.49608    0.40238    0.62661    1.000
    C48      C        0.35954    0.13297    0.68875    1.000
    C49      C        0.46079    0.35424    0.56902    1.000
    C50      C        0.36754    0.08401    0.77091    1.000
    O34      O        0.20677    0.14232    0.44128    1.000
    C51      C        0.34576    0.22031    0.53592    1.000
    H17      H        0.33690    0.24270    0.48460    1.000
    C52      C        0.40788    0.21918    0.66733    1.000
    H18      H        0.44470    0.24660    0.70820    1.000
    C53      C        0.29502    0.13510    0.55731    1.000
    C54      C        0.22928    0.08998    0.50026    1.000
    O35      O        0.33468    0.99731    0.78501    1.000
    O36      O        0.19655    0.00315    0.51711    1.000
    Cd7      Cd       0.89942    0.49614    0.08115    1.000
    C55      C        0.90338    0.23642    0.40928    1.000
    C56      C        0.80388    0.41020    0.36693    1.000
    H19      H        0.77420    0.46350    0.35780    1.000
    O37      O        0.90817    0.36493    0.17619    1.000
    O38      O        0.97377    0.12462    0.50314    1.000
    O39      O        0.99608    0.09762    0.37339    1.000
    C57      C        0.85954    0.36703    0.31125    1.000
    C58      C        0.96079    0.14576    0.43098    1.000
    C59      C        0.86754    0.41599    0.22909    1.000
    O40      O        0.70677    0.35768    0.55872    1.000
    C60      C        0.84576    0.27969    0.46408    1.000
    H20      H        0.83690    0.25730    0.51540    1.000
    C61      C        0.90788    0.28082    0.33267    1.000
    H21      H        0.94470    0.25340    0.29180    1.000
    C62      C        0.79502    0.36490    0.44269    1.000
    C63      C        0.72928    0.41002    0.49974    1.000
    O41      O        0.83468    0.50269    0.21499    1.000
    O42      O        0.69655    0.49685    0.48289    1.000
    Cd8      Cd       0.60058    0.50386    0.58115    1.000
    C64      C        0.59662    0.76358    0.90928    1.000
    C65      C        0.69612    0.58980    0.86693    1.000
    H22      H        0.72580    0.53650    0.85780    1.000
    O43      O        0.59183    0.63507    0.67619    1.000
    O44      O        0.52623    0.87538    0.00314    1.000
    O45      O        0.50392    0.90238    0.87339    1.000
    C66      C        0.64046    0.63297    0.81125    1.000
    C67      C        0.53921    0.85424    0.93098    1.000
    C68      C        0.63246    0.58401    0.72909    1.000
    O46      O        0.79323    0.64232    0.05872    1.000
    C69      C        0.65424    0.72031    0.96408    1.000
    H23      H        0.66310    0.74270    0.01540    1.000
    C70      C        0.59212    0.71918    0.83267    1.000
    H24      H        0.55530    0.74660    0.79180    1.000
    C71      C        0.70498    0.63510    0.94269    1.000
    C72      C        0.77072    0.58998    0.99974    1.000
    O47      O        0.66532    0.49731    0.71499    1.000
    O48      O        0.80345    0.50315    0.98289    1.000
