# CIF file generated by openbabel 3.1.0, see https://openbabel.org
data_I
_chemical_name_common 'image0'
_cell_length_a 29.155
_cell_length_b 29.155
_cell_length_c 17.367
_cell_angle_alpha 90
_cell_angle_beta 90
_cell_angle_gamma 120
_space_group_name_H-M_alt 'P 1'
_space_group_name_Hall 'P 1'
loop_
    _symmetry_equiv_pos_as_xyz
    x,y,z
loop_
    _atom_site_label
    _atom_site_type_symbol
    _atom_site_fract_x
    _atom_site_fract_y
    _atom_site_fract_z
    _atom_site_occupancy
    In1      In       0.69353    0.15960    0.11451    1.000
    O1       O        0.72280    0.19040    0.25110    1.000
    O2       O        0.76670    0.17300    0.16530    1.000
    O3       O        0.64340    0.08830    0.17780    1.000
    O4       O        0.60650    0.08810    0.06540    1.000
    O5       O        0.71800    0.11190    0.02750    1.000
    O6       O        0.71570    0.18300    0.99360    1.000
    O7       O        0.73150    0.25310    0.11960    1.000
    O8       O        0.64550    0.19780    0.12770    1.000
    C1       C        0.80880    0.20700    0.28670    1.000
    C2       C        0.85130    0.20040    0.26430    1.000
    H1       H        0.85150    0.18660    0.21610    1.000
    C3       C        0.89360    0.21460    0.31540    1.000
    C4       C        0.89530    0.24100    0.38310    1.000
    H2       H        0.92470    0.25360    0.41510    1.000
    C5       C        0.85340    0.24860    0.40340    1.000
    C6       C        0.80900    0.22930    0.35250    1.000
    H3       H        0.77990    0.23260    0.36620    1.000
    C7       C        0.76180    0.18850    0.23000    1.000
    C8       C        0.60520    0.06490    0.12860    1.000
    C9       C        0.72700    0.14700    0.97810    1.000
    C10      C        0.62330    0.28130    0.12780    1.000
    H4       H        0.59460    0.24700    0.12880    1.000
    C11      C        0.67460    0.28990    0.12700    1.000
    C12      C        0.68510    0.24460    0.12620    1.000
    In2      In       0.36020    0.49293    0.44784    1.000
    O9       O        0.38947    0.52373    0.58443    1.000
    O10      O        0.43337    0.50633    0.49863    1.000
    O11      O        0.31007    0.42163    0.51113    1.000
    O12      O        0.27317    0.42143    0.39873    1.000
    O13      O        0.38467    0.44523    0.36083    1.000
    O14      O        0.38237    0.51633    0.32693    1.000
    O15      O        0.39817    0.58643    0.45293    1.000
    O16      O        0.31217    0.53113    0.46103    1.000
    C13      C        0.47547    0.54033    0.62003    1.000
    C14      C        0.51797    0.53373    0.59763    1.000
    H5       H        0.51817    0.51993    0.54943    1.000
    C15      C        0.56027    0.54793    0.64873    1.000
    C16      C        0.56197    0.57433    0.71643    1.000
    H6       H        0.59137    0.58693    0.74843    1.000
    C17      C        0.52007    0.58193    0.73673    1.000
    C18      C        0.47567    0.56263    0.68583    1.000
    H7       H        0.44657    0.56593    0.69953    1.000
    C19      C        0.42847    0.52183    0.56333    1.000
    C20      C        0.27187    0.39823    0.46193    1.000
    C21      C        0.39367    0.48033    0.31143    1.000
    C22      C        0.28997    0.61463    0.46113    1.000
    H8       H        0.26127    0.58033    0.46213    1.000
    C23      C        0.34127    0.62323    0.46033    1.000
    C24      C        0.35177    0.57793    0.45953    1.000
    In3      In       0.02686    0.82627    0.78118    1.000
    O17      O        0.05613    0.85707    0.91777    1.000
    O18      O        0.10003    0.83967    0.83197    1.000
    O19      O        0.97673    0.75497    0.84447    1.000
    O20      O        0.93983    0.75477    0.73207    1.000
    O21      O        0.05133    0.77857    0.69417    1.000
    O22      O        0.04903    0.84967    0.66027    1.000
    O23      O        0.06483    0.91977    0.78627    1.000
    O24      O        0.97883    0.86447    0.79437    1.000
    C25      C        0.14213    0.87367    0.95337    1.000
    C26      C        0.18463    0.86707    0.93097    1.000
    H9       H        0.18483    0.85327    0.88277    1.000
    C27      C        0.22693    0.88127    0.98207    1.000
    C28      C        0.22863    0.90767    0.04977    1.000
    H10      H        0.25803    0.92027    0.08177    1.000
    C29      C        0.18673    0.91527    0.07007    1.000
    C30      C        0.14233    0.89597    0.01917    1.000
    H11      H        0.11323    0.89927    0.03287    1.000
    C31      C        0.09513    0.85517    0.89667    1.000
    C32      C        0.93853    0.73157    0.79527    1.000
    C33      C        0.06033    0.81367    0.64477    1.000
    C34      C        0.95663    0.94797    0.79447    1.000
    H12      H        0.92793    0.91367    0.79547    1.000
    C35      C        0.00793    0.95657    0.79367    1.000
    C36      C        0.01843    0.91127    0.79287    1.000
    In4      In       0.84040    0.53393    0.11451    1.000
    O25      O        0.80960    0.53240    0.25110    1.000
    O26      O        0.82700    0.59370    0.16530    1.000
    O27      O        0.91170    0.55510    0.17780    1.000
    O28      O        0.91190    0.51840    0.06540    1.000
    O29      O        0.88810    0.60610    0.02750    1.000
    O30      O        0.81700    0.53270    0.99360    1.000
    O31      O        0.74690    0.47840    0.11960    1.000
    O32      O        0.80220    0.44770    0.12770    1.000
    C37      C        0.79300    0.60180    0.28670    1.000
    C38      C        0.79960    0.65090    0.26430    1.000
    H13      H        0.81340    0.66490    0.21610    1.000
    C39      C        0.78540    0.67900    0.31540    1.000
    C40      C        0.75900    0.65430    0.38310    1.000
    H14      H        0.74640    0.67110    0.41510    1.000
    C41      C        0.75140    0.60480    0.40340    1.000
    C42      C        0.77070    0.57970    0.35250    1.000
    H15      H        0.76740    0.54730    0.36620    1.000
    C43      C        0.81150    0.57330    0.23000    1.000
    C44      C        0.93510    0.54030    0.12860    1.000
    C45      C        0.85300    0.58000    0.97810    1.000
    C46      C        0.71870    0.34200    0.12780    1.000
    H16      H        0.75300    0.34760    0.12880    1.000
    C47      C        0.71010    0.38470    0.12700    1.000
    C48      C        0.75540    0.44050    0.12620    1.000
    In5      In       0.50707    0.86726    0.44784    1.000
    O33      O        0.47627    0.86573    0.58443    1.000
    O34      O        0.49367    0.92703    0.49863    1.000
    O35      O        0.57837    0.88843    0.51113    1.000
    O36      O        0.57857    0.85173    0.39873    1.000
    O37      O        0.55477    0.93943    0.36083    1.000
    O38      O        0.48367    0.86603    0.32693    1.000
    O39      O        0.41357    0.81173    0.45293    1.000
    O40      O        0.46887    0.78103    0.46103    1.000
    C49      C        0.45967    0.93513    0.62003    1.000
    C50      C        0.46627    0.98423    0.59763    1.000
    H17      H        0.48007    0.99823    0.54943    1.000
    C51      C        0.45207    0.01233    0.64873    1.000
    C52      C        0.42567    0.98763    0.71643    1.000
    H18      H        0.41307    0.00443    0.74843    1.000
    C53      C        0.41807    0.93813    0.73673    1.000
    C54      C        0.43737    0.91303    0.68583    1.000
    H19      H        0.43407    0.88063    0.69953    1.000
    C55      C        0.47817    0.90663    0.56333    1.000
    C56      C        0.60177    0.87363    0.46193    1.000
    C57      C        0.51967    0.91333    0.31143    1.000
    C58      C        0.38537    0.67533    0.46113    1.000
    H20      H        0.41967    0.68093    0.46213    1.000
    C59      C        0.37677    0.71803    0.46033    1.000
    C60      C        0.42207    0.77383    0.45953    1.000
    In6      In       0.17373    0.20060    0.78118    1.000
    O41      O        0.14293    0.19907    0.91777    1.000
    O42      O        0.16033    0.26037    0.83197    1.000
    O43      O        0.24503    0.22177    0.84447    1.000
    O44      O        0.24523    0.18507    0.73207    1.000
    O45      O        0.22143    0.27277    0.69417    1.000
    O46      O        0.15033    0.19937    0.66027    1.000
    O47      O        0.08023    0.14507    0.78627    1.000
    O48      O        0.13553    0.11437    0.79437    1.000
    C61      C        0.12633    0.26847    0.95337    1.000
    C62      C        0.13293    0.31757    0.93097    1.000
    H21      H        0.14673    0.33157    0.88277    1.000
    C63      C        0.11873    0.34567    0.98207    1.000
    C64      C        0.09233    0.32097    0.04977    1.000
    H22      H        0.07973    0.33777    0.08177    1.000
    C65      C        0.08473    0.27147    0.07007    1.000
    C66      C        0.10403    0.24637    0.01917    1.000
    H23      H        0.10073    0.21397    0.03287    1.000
    C67      C        0.14483    0.23997    0.89667    1.000
    C68      C        0.26843    0.20697    0.79527    1.000
    C69      C        0.18633    0.24667    0.64477    1.000
    C70      C        0.05203    0.00867    0.79447    1.000
    H24      H        0.08633    0.01427    0.79547    1.000
    C71      C        0.04343    0.05137    0.79367    1.000
    C72      C        0.08873    0.10717    0.79287    1.000
    In7      In       0.46607    0.30647    0.11451    1.000
    O49      O        0.46760    0.27720    0.25110    1.000
    O50      O        0.40630    0.23330    0.16530    1.000
    O51      O        0.44490    0.35660    0.17780    1.000
    O52      O        0.48160    0.39350    0.06540    1.000
    O53      O        0.39390    0.28200    0.02750    1.000
    O54      O        0.46730    0.28430    0.99360    1.000
    O55      O        0.52160    0.26850    0.11960    1.000
    O56      O        0.55230    0.35450    0.12770    1.000
    C73      C        0.39820    0.19120    0.28670    1.000
    C74      C        0.34910    0.14870    0.26430    1.000
    H25      H        0.33510    0.14850    0.21610    1.000
    C75      C        0.32100    0.10640    0.31540    1.000
    C76      C        0.34570    0.10470    0.38310    1.000
    H26      H        0.32890    0.07530    0.41510    1.000
    C77      C        0.39520    0.14660    0.40340    1.000
    C78      C        0.42030    0.19100    0.35250    1.000
    H27      H        0.45270    0.22010    0.36620    1.000
    C79      C        0.42670    0.23820    0.23000    1.000
    C80      C        0.45970    0.39480    0.12860    1.000
    C81      C        0.42000    0.27300    0.97810    1.000
    C82      C        0.65800    0.37670    0.12780    1.000
    H28      H        0.65240    0.40540    0.12880    1.000
    C83      C        0.61530    0.32540    0.12700    1.000
    C84      C        0.55950    0.31490    0.12620    1.000
    In8      In       0.13274    0.63980    0.44784    1.000
    O57      O        0.13427    0.61053    0.58443    1.000
    O58      O        0.07297    0.56663    0.49863    1.000
    O59      O        0.11157    0.68993    0.51113    1.000
    O60      O        0.14827    0.72683    0.39873    1.000
    O61      O        0.06057    0.61533    0.36083    1.000
    O62      O        0.13397    0.61763    0.32693    1.000
    O63      O        0.18827    0.60183    0.45293    1.000
    O64      O        0.21897    0.68783    0.46103    1.000
    C85      C        0.06487    0.52453    0.62003    1.000
    C86      C        0.01577    0.48203    0.59763    1.000
    H29      H        0.00177    0.48183    0.54943    1.000
    C87      C        0.98767    0.43973    0.64873    1.000
    C88      C        0.01237    0.43803    0.71643    1.000
    H30      H        0.99557    0.40863    0.74843    1.000
    C89      C        0.06187    0.47993    0.73673    1.000
    C90      C        0.08697    0.52433    0.68583    1.000
    H31      H        0.11937    0.55343    0.69953    1.000
    C91      C        0.09337    0.57153    0.56333    1.000
    C92      C        0.12637    0.72813    0.46193    1.000
    C93      C        0.08667    0.60633    0.31143    1.000
    C94      C        0.32467    0.71003    0.46113    1.000
    H32      H        0.31907    0.73873    0.46213    1.000
    C95      C        0.28197    0.65873    0.46033    1.000
    C96      C        0.22617    0.64823    0.45953    1.000
    In9      In       0.79940    0.97314    0.78118    1.000
    O65      O        0.80093    0.94387    0.91777    1.000
    O66      O        0.73963    0.89997    0.83197    1.000
    O67      O        0.77823    0.02327    0.84447    1.000
    O68      O        0.81493    0.06017    0.73207    1.000
    O69      O        0.72723    0.94867    0.69417    1.000
    O70      O        0.80063    0.95097    0.66027    1.000
    O71      O        0.85493    0.93517    0.78627    1.000
    O72      O        0.88563    0.02117    0.79437    1.000
    C97      C        0.73153    0.85787    0.95337    1.000
    C98      C        0.68243    0.81537    0.93097    1.000
    H33      H        0.66843    0.81517    0.88277    1.000
    C99      C        0.65433    0.77307    0.98207    1.000
    C100     C        0.67903    0.77137    0.04977    1.000
    H34      H        0.66223    0.74197    0.08177    1.000
    C101     C        0.72853    0.81327    0.07007    1.000
    C102     C        0.75363    0.85767    0.01917    1.000
    H35      H        0.78603    0.88677    0.03287    1.000
    C103     C        0.76003    0.90487    0.89667    1.000
    C104     C        0.79303    0.06147    0.79527    1.000
    C105     C        0.75333    0.93967    0.64477    1.000
    C106     C        0.99133    0.04337    0.79447    1.000
    H36      H        0.98573    0.07207    0.79547    1.000
    C107     C        0.94863    0.99207    0.79367    1.000
    C108     C        0.89283    0.98157    0.79287    1.000
    In10     In       0.84040    0.30647    0.61451    1.000
    O73      O        0.80960    0.27720    0.75110    1.000
    O74      O        0.82700    0.23330    0.66530    1.000
    O75      O        0.91170    0.35660    0.67780    1.000
    O76      O        0.91190    0.39350    0.56540    1.000
    O77      O        0.88810    0.28200    0.52750    1.000
    O78      O        0.81700    0.28430    0.49360    1.000
    O79      O        0.74690    0.26850    0.61960    1.000
    O80      O        0.80220    0.35450    0.62770    1.000
    C109     C        0.79300    0.19120    0.78670    1.000
    C110     C        0.79960    0.14870    0.76430    1.000
    H37      H        0.81340    0.14850    0.71610    1.000
    C111     C        0.78540    0.10640    0.81540    1.000
    C112     C        0.75900    0.10470    0.88310    1.000
    H38      H        0.74640    0.07530    0.91510    1.000
    C113     C        0.75140    0.14660    0.90340    1.000
    C114     C        0.77070    0.19100    0.85250    1.000
    H39      H        0.76740    0.22010    0.86620    1.000
    C115     C        0.81150    0.23820    0.73000    1.000
    C116     C        0.93510    0.39480    0.62860    1.000
    C117     C        0.85300    0.27300    0.47810    1.000
    C118     C        0.71870    0.37670    0.62780    1.000
    H40      H        0.75300    0.40540    0.62880    1.000
    C119     C        0.71010    0.32540    0.62700    1.000
    C120     C        0.75540    0.31490    0.62620    1.000
    In11     In       0.50707    0.63980    0.94784    1.000
    O81      O        0.47627    0.61053    0.08443    1.000
    O82      O        0.49367    0.56663    0.99863    1.000
    O83      O        0.57837    0.68993    0.01113    1.000
    O84      O        0.57857    0.72683    0.89873    1.000
    O85      O        0.55477    0.61533    0.86083    1.000
    O86      O        0.48367    0.61763    0.82693    1.000
    O87      O        0.41357    0.60183    0.95293    1.000
    O88      O        0.46887    0.68783    0.96103    1.000
    C121     C        0.45967    0.52453    0.12003    1.000
    C122     C        0.46627    0.48203    0.09763    1.000
    H41      H        0.48007    0.48183    0.04943    1.000
    C123     C        0.45207    0.43973    0.14873    1.000
    C124     C        0.42567    0.43803    0.21643    1.000
    H42      H        0.41307    0.40863    0.24843    1.000
    C125     C        0.41807    0.47993    0.23673    1.000
    C126     C        0.43737    0.52433    0.18583    1.000
    H43      H        0.43407    0.55343    0.19953    1.000
    C127     C        0.47817    0.57153    0.06333    1.000
    C128     C        0.60177    0.72813    0.96193    1.000
    C129     C        0.51967    0.60633    0.81143    1.000
    C130     C        0.38537    0.71003    0.96113    1.000
    H44      H        0.41967    0.73873    0.96213    1.000
    C131     C        0.37677    0.65873    0.96033    1.000
    C132     C        0.42207    0.64823    0.95953    1.000
    In12     In       0.17373    0.97314    0.28118    1.000
    O89      O        0.14293    0.94387    0.41777    1.000
    O90      O        0.16033    0.89997    0.33197    1.000
    O91      O        0.24503    0.02327    0.34447    1.000
    O92      O        0.24523    0.06017    0.23207    1.000
    O93      O        0.22143    0.94867    0.19417    1.000
    O94      O        0.15033    0.95097    0.16027    1.000
    O95      O        0.08023    0.93517    0.28627    1.000
    O96      O        0.13553    0.02117    0.29437    1.000
    C133     C        0.12633    0.85787    0.45337    1.000
    C134     C        0.13293    0.81537    0.43097    1.000
    H45      H        0.14673    0.81517    0.38277    1.000
    C135     C        0.11873    0.77307    0.48207    1.000
    C136     C        0.09233    0.77137    0.54977    1.000
    H46      H        0.07973    0.74197    0.58177    1.000
    C137     C        0.08473    0.81327    0.57007    1.000
    C138     C        0.10403    0.85767    0.51917    1.000
    H47      H        0.10073    0.88677    0.53287    1.000
    C139     C        0.14483    0.90487    0.39667    1.000
    C140     C        0.26843    0.06147    0.29527    1.000
    C141     C        0.18633    0.93967    0.14477    1.000
    C142     C        0.05203    0.04337    0.29447    1.000
    H48      H        0.08633    0.07207    0.29547    1.000
    C143     C        0.04343    0.99207    0.29367    1.000
    C144     C        0.08873    0.98157    0.29287    1.000
    In13     In       0.46607    0.15960    0.61451    1.000
    O97      O        0.46760    0.19040    0.75110    1.000
    O98      O        0.40630    0.17300    0.66530    1.000
    O99      O        0.44490    0.08830    0.67780    1.000
    O100     O        0.48160    0.08810    0.56540    1.000
    O101     O        0.39390    0.11190    0.52750    1.000
    O102     O        0.46730    0.18300    0.49360    1.000
    O103     O        0.52160    0.25310    0.61960    1.000
    O104     O        0.55230    0.19780    0.62770    1.000
    C145     C        0.39820    0.20700    0.78670    1.000
    C146     C        0.34910    0.20040    0.76430    1.000
    H49      H        0.33510    0.18660    0.71610    1.000
    C147     C        0.32100    0.21460    0.81540    1.000
    C148     C        0.34570    0.24100    0.88310    1.000
    H50      H        0.32890    0.25360    0.91510    1.000
    C149     C        0.39520    0.24860    0.90340    1.000
    C150     C        0.42030    0.22930    0.85250    1.000
    H51      H        0.45270    0.23260    0.86620    1.000
    C151     C        0.42670    0.18850    0.73000    1.000
    C152     C        0.45970    0.06490    0.62860    1.000
    C153     C        0.42000    0.14700    0.47810    1.000
    C154     C        0.65800    0.28130    0.62780    1.000
    H52      H        0.65240    0.24700    0.62880    1.000
    C155     C        0.61530    0.28990    0.62700    1.000
    C156     C        0.55950    0.24460    0.62620    1.000
    In14     In       0.13274    0.49293    0.94784    1.000
    O105     O        0.13427    0.52373    0.08443    1.000
    O106     O        0.07297    0.50633    0.99863    1.000
    O107     O        0.11157    0.42163    0.01113    1.000
    O108     O        0.14827    0.42143    0.89873    1.000
    O109     O        0.06057    0.44523    0.86083    1.000
    O110     O        0.13397    0.51633    0.82693    1.000
    O111     O        0.18827    0.58643    0.95293    1.000
    O112     O        0.21897    0.53113    0.96103    1.000
    C157     C        0.06487    0.54033    0.12003    1.000
    C158     C        0.01577    0.53373    0.09763    1.000
    H53      H        0.00177    0.51993    0.04943    1.000
    C159     C        0.98767    0.54793    0.14873    1.000
    C160     C        0.01237    0.57433    0.21643    1.000
    H54      H        0.99557    0.58693    0.24843    1.000
    C161     C        0.06187    0.58193    0.23673    1.000
    C162     C        0.08697    0.56263    0.18583    1.000
    H55      H        0.11937    0.56593    0.19953    1.000
    C163     C        0.09337    0.52183    0.06333    1.000
    C164     C        0.12637    0.39823    0.96193    1.000
    C165     C        0.08667    0.48033    0.81143    1.000
    C166     C        0.32467    0.61463    0.96113    1.000
    H56      H        0.31907    0.58033    0.96213    1.000
    C167     C        0.28197    0.62323    0.96033    1.000
    C168     C        0.22617    0.57793    0.95953    1.000
    In15     In       0.79940    0.82627    0.28118    1.000
    O113     O        0.80093    0.85707    0.41777    1.000
    O114     O        0.73963    0.83967    0.33197    1.000
    O115     O        0.77823    0.75497    0.34447    1.000
    O116     O        0.81493    0.75477    0.23207    1.000
    O117     O        0.72723    0.77857    0.19417    1.000
    O118     O        0.80063    0.84967    0.16027    1.000
    O119     O        0.85493    0.91977    0.28627    1.000
    O120     O        0.88563    0.86447    0.29437    1.000
    C169     C        0.73153    0.87367    0.45337    1.000
    C170     C        0.68243    0.86707    0.43097    1.000
    H57      H        0.66843    0.85327    0.38277    1.000
    C171     C        0.65433    0.88127    0.48207    1.000
    C172     C        0.67903    0.90767    0.54977    1.000
    H58      H        0.66223    0.92027    0.58177    1.000
    C173     C        0.72853    0.91527    0.57007    1.000
    C174     C        0.75363    0.89597    0.51917    1.000
    H59      H        0.78603    0.89927    0.53287    1.000
    C175     C        0.76003    0.85517    0.39667    1.000
    C176     C        0.79303    0.73157    0.29527    1.000
    C177     C        0.75333    0.81367    0.14477    1.000
    C178     C        0.99133    0.94797    0.29447    1.000
    H60      H        0.98573    0.91367    0.29547    1.000
    C179     C        0.94863    0.95657    0.29367    1.000
    C180     C        0.89283    0.91127    0.29287    1.000
    In16     In       0.69353    0.53393    0.61451    1.000
    O121     O        0.72280    0.53240    0.75110    1.000
    O122     O        0.76670    0.59370    0.66530    1.000
    O123     O        0.64340    0.55510    0.67780    1.000
    O124     O        0.60650    0.51840    0.56540    1.000
    O125     O        0.71800    0.60610    0.52750    1.000
    O126     O        0.71570    0.53270    0.49360    1.000
    O127     O        0.73150    0.47840    0.61960    1.000
    O128     O        0.64550    0.44770    0.62770    1.000
    C181     C        0.80880    0.60180    0.78670    1.000
    C182     C        0.85130    0.65090    0.76430    1.000
    H61      H        0.85150    0.66490    0.71610    1.000
    C183     C        0.89360    0.67900    0.81540    1.000
    C184     C        0.89530    0.65430    0.88310    1.000
    H62      H        0.92470    0.67110    0.91510    1.000
    C185     C        0.85340    0.60480    0.90340    1.000
    C186     C        0.80900    0.57970    0.85250    1.000
    H63      H        0.77990    0.54730    0.86620    1.000
    C187     C        0.76180    0.57330    0.73000    1.000
    C188     C        0.60520    0.54030    0.62860    1.000
    C189     C        0.72700    0.58000    0.47810    1.000
    C190     C        0.62330    0.34200    0.62780    1.000
    H64      H        0.59460    0.34760    0.62880    1.000
    C191     C        0.67460    0.38470    0.62700    1.000
    C192     C        0.68510    0.44050    0.62620    1.000
    In17     In       0.36020    0.86726    0.94784    1.000
    O129     O        0.38947    0.86573    0.08443    1.000
    O130     O        0.43337    0.92703    0.99863    1.000
    O131     O        0.31007    0.88843    0.01113    1.000
    O132     O        0.27317    0.85173    0.89873    1.000
    O133     O        0.38467    0.93943    0.86083    1.000
    O134     O        0.38237    0.86603    0.82693    1.000
    O135     O        0.39817    0.81173    0.95293    1.000
    O136     O        0.31217    0.78103    0.96103    1.000
    C193     C        0.47547    0.93513    0.12003    1.000
    C194     C        0.51797    0.98423    0.09763    1.000
    H65      H        0.51817    0.99823    0.04943    1.000
    C195     C        0.56027    0.01233    0.14873    1.000
    C196     C        0.56197    0.98763    0.21643    1.000
    H66      H        0.59137    0.00443    0.24843    1.000
    C197     C        0.52007    0.93813    0.23673    1.000
    C198     C        0.47567    0.91303    0.18583    1.000
    H67      H        0.44657    0.88063    0.19953    1.000
    C199     C        0.42847    0.90663    0.06333    1.000
    C200     C        0.27187    0.87363    0.96193    1.000
    C201     C        0.39367    0.91333    0.81143    1.000
    C202     C        0.28997    0.67533    0.96113    1.000
    H68      H        0.26127    0.68093    0.96213    1.000
    C203     C        0.34127    0.71803    0.96033    1.000
    C204     C        0.35177    0.77383    0.95953    1.000
    In18     In       0.02686    0.20060    0.28118    1.000
    O137     O        0.05613    0.19907    0.41777    1.000
    O138     O        0.10003    0.26037    0.33197    1.000
    O139     O        0.97673    0.22177    0.34447    1.000
    O140     O        0.93983    0.18507    0.23207    1.000
    O141     O        0.05133    0.27277    0.19417    1.000
    O142     O        0.04903    0.19937    0.16027    1.000
    O143     O        0.06483    0.14507    0.28627    1.000
    O144     O        0.97883    0.11437    0.29437    1.000
    C205     C        0.14213    0.26847    0.45337    1.000
    C206     C        0.18463    0.31757    0.43097    1.000
    H69      H        0.18483    0.33157    0.38277    1.000
    C207     C        0.22693    0.34567    0.48207    1.000
    C208     C        0.22863    0.32097    0.54977    1.000
    H70      H        0.25803    0.33777    0.58177    1.000
    C209     C        0.18673    0.27147    0.57007    1.000
    C210     C        0.14233    0.24637    0.51917    1.000
    H71      H        0.11323    0.21397    0.53287    1.000
    C211     C        0.09513    0.23997    0.39667    1.000
    C212     C        0.93853    0.20697    0.29527    1.000
    C213     C        0.06033    0.24667    0.14477    1.000
    C214     C        0.95663    0.00867    0.29447    1.000
    H72      H        0.92793    0.01427    0.29547    1.000
    C215     C        0.00793    0.05137    0.29367    1.000
    C216     C        0.01843    0.10717    0.29287    1.000
